
     RDKit          2D

 16 17  0  0  0  0  0  0  0  0999 V2000
    0.5825   -2.9363    0.0000 C   0  0  0  0  0  0  0  0  0  0  0  0
    1.2970   -2.5238    0.0000 C   0  0  0  0  0  0  0  0  0  0  0  0
    2.0115   -2.9363    0.0000 C   0  0  0  0  0  0  0  0  0  0  0  0
    1.2970   -1.6988    0.0000 C   0  0  0  0  0  0  0  0  0  0  0  0
    0.5825   -1.2863    0.0000 C   0  0  0  0  0  0  0  0  0  0  0  0
    0.5825   -0.4613    0.0000 C   0  0  0  0  0  0  0  0  0  0  0  0
    1.2970   -0.0488    0.0000 C   0  0  0  0  0  0  0  0  0  0  0  0
    2.0115   -0.4613    0.0000 C   0  0  0  0  0  0  0  0  0  0  0  0
    2.7260   -0.0488    0.0000 C   0  0  0  0  0  0  0  0  0  0  0  0
    2.7260    0.7762    0.0000 C   0  0  0  0  0  0  0  0  0  0  0  0
    2.0115    1.1887    0.0000 C   0  0  0  0  0  0  0  0  0  0  0  0
    3.4404    1.1887    0.0000 C   0  0  0  0  0  0  0  0  0  0  0  0
    3.4404   -0.4613    0.0000 C   0  0  0  0  0  0  0  0  0  0  0  0
    3.4404   -1.2863    0.0000 C   0  0  0  0  0  0  0  0  0  0  0  0
    2.7260   -1.6988    0.0000 C   0  0  0  0  0  0  0  0  0  0  0  0
    2.0115   -1.2863    0.0000 C   0  0  0  0  0  0  0  0  0  0  0  0
  1  2  1  0
  2  3  1  0
  2  4  1  0
  4  5  2  0
  5  6  1  0
  6  7  2  0
  7  8  1  0
  8  9  2  0
  9 10  1  0
 10 11  1  0
 10 12  1  0
  9 13  1  0
 13 14  2  0
 14 15  1  0
 15 16  2  0
  4 16  1  0
  8 16  1  0
M  END
>  <id>  (1) 
923

>  <casrn>  (1) 
38640-62-9

>  <smiles (First)>  (1) 


>  <Molecular weight>  (1) 
212.3300018310547

>  <name>  (1) 
1,2-bis(propan-2-yl)naphthalene

>  <Outcome>  (1) 
0

>  <Molecule (RDKit Mol) (InChI Code)>  (1) 
InChI=1S/C16H20/c1-11(2)13-7-5-10-16-14(12(3)4)8-6-9-15(13)16/h5-12H,1-4H3

>  <reference>  (1) 
ECHA

>  <molecule_form>  (1) 
A

>  <ID>  (1) 


>  <SMILES>  (1) 
CC(C)c1cccc2c(C(C)C)cccc12

>  <ROMol>  (1) 
<rdkit.Chem.rdchem.Mol object at 0x0000027F5843A4A0>

$$$$

     RDKit          2D

  6  5  0  0  0  0  0  0  0  0999 V2000
   -0.1914    0.7165    0.0000 C   0  0  0  0  0  0  0  0  0  0  0  0
    0.5230    1.1290    0.0000 C   0  0  0  0  0  0  0  0  0  0  0  0
    1.2375    0.7165    0.0000 C   0  0  0  0  0  0  0  0  0  0  0  0
    1.9520    1.1290    0.0000 C   0  0  0  0  0  0  0  0  0  0  0  0
    2.6664    0.7165    0.0000 C   0  0  0  0  0  0  0  0  0  0  0  0
    3.3809    1.1290    0.0000 C   0  0  0  0  0  0  0  0  0  0  0  0
  1  2  2  0
  2  3  1  0
  3  4  1  0
  4  5  1  0
  5  6  1  0
M  END
>  <id>  (2) 
3244; 3245

>  <casrn>  (2) 
592-41-6

>  <smiles (First)>  (2) 


>  <Molecular weight>  (2) 
84.15948486328125

>  <name>  (2) 
hex-1-ene

>  <Outcome>  (2) 
0

>  <Molecule (RDKit Mol) (InChI Code)>  (2) 
InChI=1S/C6H12/c1-3-5-6-4-2/h3H,1,4-6H2,2H3

>  <reference>  (2) 
ECHA

>  <molecule_form>  (2) 
V

>  <ID>  (2) 


>  <SMILES>  (2) 
C=CCCCC

>  <ROMol>  (2) 
<rdkit.Chem.rdchem.Mol object at 0x0000027F624B1BA0>

$$$$

     RDKit          2D

 10 10  0  0  0  0  0  0  0  0999 V2000
   -0.7145    2.8875    0.0000 O   0  0  0  0  0  0  0  0  0  0  0  0
   -0.0000    2.4750    0.0000 C   0  0  0  0  0  0  0  0  0  0  0  0
    0.7145    2.0625    0.0000 N   0  0  0  0  0  0  0  0  0  0  0  0
    0.7145    1.2375    0.0000 C   0  0  0  0  0  0  0  0  0  0  0  0
    1.4289    0.8250    0.0000 C   0  0  0  0  0  0  0  0  0  0  0  0
    1.4289    0.0000    0.0000 C   0  0  0  0  0  0  0  0  0  0  0  0
    0.7145   -0.4125    0.0000 C   0  0  0  0  0  0  0  0  0  0  0  0
   -0.0000    0.0000    0.0000 C   0  0  0  0  0  0  0  0  0  0  0  0
   -0.7145   -0.4125    0.0000 Cl  0  0  0  0  0  0  0  0  0  0  0  0
   -0.0000    0.8250    0.0000 C   0  0  0  0  0  0  0  0  0  0  0  0
  1  2  2  0
  2  3  2  0
  3  4  1  0
  4  5  2  0
  5  6  1  0
  6  7  2  0
  7  8  1  0
  8  9  1  0
  8 10  2  0
  4 10  1  0
M  END
>  <id>  (3) 
1143

>  <casrn>  (3) 
2909-38-8

>  <smiles (First)>  (3) 


>  <Molecular weight>  (3) 
153.56576538085938

>  <name>  (3) 
1-chloro-3-isocyanatobenzene

>  <Outcome>  (3) 
1

>  <Molecule (RDKit Mol) (InChI Code)>  (3) 
InChI=1S/C7H4ClNO/c8-6-2-1-3-7(4-6)9-5-10/h1-4H

>  <reference>  (3) 
ECHA

>  <molecule_form>  (3) 
V

>  <ID>  (3) 


>  <SMILES>  (3) 
O=C=Nc1cccc(Cl)c1

>  <ROMol>  (3) 
<rdkit.Chem.rdchem.Mol object at 0x0000027F624DD510>

$$$$

     RDKit          2D

 25 26  0  0  0  0  0  0  0  0999 V2000
   -2.5974   -0.4914    0.0000 C   0  0  0  0  0  0  0  0  0  0  0  0
   -2.1849   -1.2059    0.0000 C   0  0  0  0  0  0  0  0  0  0  0  0
   -1.3599   -1.2059    0.0000 C   0  0  0  0  0  0  0  0  0  0  0  0
   -0.9474   -1.9204    0.0000 C   0  0  0  0  0  0  0  0  0  0  0  0
   -0.1224   -1.9204    0.0000 C   0  0  0  0  0  0  0  0  0  0  0  0
    0.2901   -1.2059    0.0000 C   0  0  0  0  0  0  0  0  0  0  0  0
    1.1151   -1.2059    0.0000 C   0  0  0  0  0  0  0  0  0  0  0  0
    0.2901   -2.6348    0.0000 C   0  0  0  0  0  0  0  0  0  0  0  0
    1.1151   -2.6348    0.0000 O   0  0  0  0  0  0  0  0  0  0  0  0
    1.5276   -3.3493    0.0000 P   0  0  0  0  0  0  0  0  0  0  0  0
    0.8131   -3.7618    0.0000 O   0  0  0  0  0  0  0  0  0  0  0  0
    1.9401   -4.0638    0.0000 O   0  0  0  0  0  0  0  0  0  0  0  0
    1.5276   -4.7782    0.0000 C   0  0  0  0  0  0  0  0  0  0  0  0
    0.7026   -4.7782    0.0000 C   0  0  0  0  0  0  0  0  0  0  0  0
    0.2901   -5.4927    0.0000 C   0  0  0  0  0  0  0  0  0  0  0  0
    0.7026   -6.2072    0.0000 C   0  0  0  0  0  0  0  0  0  0  0  0
    1.5276   -6.2072    0.0000 C   0  0  0  0  0  0  0  0  0  0  0  0
    1.9401   -5.4927    0.0000 C   0  0  0  0  0  0  0  0  0  0  0  0
    2.2421   -2.9368    0.0000 O   0  0  0  0  0  0  0  0  0  0  0  0
    2.9565   -3.3493    0.0000 C   0  0  0  0  0  0  0  0  0  0  0  0
    2.9565   -4.1743    0.0000 C   0  0  0  0  0  0  0  0  0  0  0  0
    3.6710   -4.5868    0.0000 C   0  0  0  0  0  0  0  0  0  0  0  0
    4.3855   -4.1743    0.0000 C   0  0  0  0  0  0  0  0  0  0  0  0
    4.3855   -3.3493    0.0000 C   0  0  0  0  0  0  0  0  0  0  0  0
    3.6710   -2.9368    0.0000 C   0  0  0  0  0  0  0  0  0  0  0  0
  1  2  1  0
  2  3  1  0
  3  4  1  0
  4  5  1  0
  5  6  1  0
  6  7  1  0
  5  8  1  0
  8  9  1  0
  9 10  1  0
 10 11  2  0
 10 12  1  0
 12 13  1  0
 14 13  2  0
 15 14  1  0
 16 15  2  0
 17 16  1  0
 18 17  2  0
 10 19  1  0
 19 20  1  0
 21 20  2  0
 22 21  1  0
 23 22  2  0
 24 23  1  0
 25 24  2  0
 13 18  1  0
 20 25  1  0
M  END
>  <id>  (4) 
220768; 901830

>  <casrn>  (4) 
1241-94-7

>  <smiles (First)>  (4) 
CCCCC(CC)CO[P](=O)(Oc1ccccc1)Oc2ccccc2

>  <Molecular weight>  (4) 
362.3997497558594

>  <name>  (4) 
2-Ethylhexyl diphenyl phosphate

>  <Outcome>  (4) 
1

>  <Molecule (RDKit Mol) (InChI Code)>  (4) 
InChI=1S/C20H27O4P/c1-3-5-12-18(4-2)17-22-25(21,23-19-13-8-6-9-14-19)24-20-15-10-7-11-16-20/h6-11,13-16,18H,3-5,12,17H2,1-2H3

>  <reference>  (4) 
ToxValDB

>  <molecule_form>  (4) 
not specified

>  <ID>  (4) 


>  <SMILES>  (4) 
CCCCC(CC)COP(=O)(Oc1ccccc1)Oc1ccccc1

>  <ROMol>  (4) 
<rdkit.Chem.rdchem.Mol object at 0x0000027F585E3120>

$$$$

     RDKit          2D

  7  6  0  0  0  0  0  0  0  0999 V2000
   -0.1914    0.7145    0.0000 C   0  0  0  0  0  0  0  0  0  0  0  0
    0.5230    1.1270    0.0000 O   0  0  0  0  0  0  0  0  0  0  0  0
    1.2375    0.7145    0.0000 C   0  0  0  0  0  0  0  0  0  0  0  0
    1.2375   -0.1105    0.0000 O   0  0  0  0  0  0  0  0  0  0  0  0
    1.9520    1.1270    0.0000 C   0  0  0  0  0  0  0  0  0  0  0  0
    2.6664    0.7145    0.0000 C   0  0  0  0  0  0  0  0  0  0  0  0
    3.3809    1.1270    0.0000 S   0  0  0  0  0  0  0  0  0  0  0  0
  1  2  1  0
  2  3  1  0
  3  4  2  0
  3  5  1  0
  5  6  1  0
  6  7  1  0
M  END
>  <id>  (5) 
3459

>  <casrn>  (5) 
2935-90-2

>  <smiles (First)>  (5) 


>  <Molecular weight>  (5) 
120.17012023925781

>  <name>  (5) 
methyl 3-sulfanylpropanoate

>  <Outcome>  (5) 
1

>  <Molecule (RDKit Mol) (InChI Code)>  (5) 
InChI=1S/C4H8O2S/c1-6-4(5)2-3-7/h7H,2-3H2,1H3

>  <reference>  (5) 
ECHA

>  <molecule_form>  (5) 
V

>  <ID>  (5) 


>  <SMILES>  (5) 
COC(=O)CCS

>  <ROMol>  (5) 
<rdkit.Chem.rdchem.Mol object at 0x0000027F624DD890>

$$$$

     RDKit          2D

 15 14  0  0  0  0  0  0  0  0999 V2000
    1.7913   -1.8224    0.0000 C   0  0  0  0  0  0  0  0  0  0  0  0
    2.5058   -1.4099    0.0000 C   0  0  0  0  0  0  0  0  0  0  0  0
    3.2203   -1.8224    0.0000 C   0  0  0  0  0  0  0  0  0  0  0  0
    3.9348   -1.4099    0.0000 C   0  0  0  0  0  0  0  0  0  0  0  0
    4.6492   -1.8224    0.0000 C   0  0  0  0  0  0  0  0  0  0  0  0
    5.3637   -1.4099    0.0000 C   0  0  0  0  0  0  0  0  0  0  0  0
    6.0782   -1.8224    0.0000 C   0  0  0  0  0  0  0  0  0  0  0  0
    6.7926   -1.4099    0.0000 C   0  0  0  0  0  0  0  0  0  0  0  0
    7.5071   -1.8224    0.0000 Si  0  0  0  0  0  4  0  0  0  0  0  0
    8.2216   -2.2349    0.0000 O   0  0  0  0  0  0  0  0  0  0  0  0
    8.9360   -1.8224    0.0000 C   0  0  0  0  0  0  0  0  0  0  0  0
    7.0946   -2.5369    0.0000 O   0  0  0  0  0  0  0  0  0  0  0  0
    7.5071   -3.2513    0.0000 C   0  0  0  0  0  0  0  0  0  0  0  0
    7.9196   -1.1079    0.0000 O   0  0  0  0  0  0  0  0  0  0  0  0
    8.7446   -1.1079    0.0000 C   0  0  0  0  0  0  0  0  0  0  0  0
  1  2  1  0
  2  3  1  0
  3  4  1  0
  4  5  1  0
  5  6  1  0
  6  7  1  0
  7  8  1  0
  8  9  1  0
  9 10  1  0
 10 11  1  0
  9 12  1  0
 12 13  1  0
  9 14  1  0
 14 15  1  0
M  END
>  <id>  (6) 
4086

>  <casrn>  (6) 
3069-40-7

>  <smiles (First)>  (6) 


>  <Molecular weight>  (6) 
234.40785217285156

>  <name>  (6) 
trimethoxy(octyl)silane

>  <Outcome>  (6) 
1

>  <Molecule (RDKit Mol) (InChI Code)>  (6) 
InChI=1S/C11H26O3Si/c1-5-6-7-8-9-10-11-15(12-2,13-3)14-4/h5-11H2,1-4H3

>  <reference>  (6) 
ECHA

>  <molecule_form>  (6) 
A

>  <ID>  (6) 


>  <SMILES>  (6) 
CCCCCCCC[Si](OC)(OC)OC

>  <ROMol>  (6) 
<rdkit.Chem.rdchem.Mol object at 0x0000027F583F40B0>

$$$$

     RDKit          2D

  6  5  0  0  0  0  0  0  0  0999 V2000
    0.7851    1.5253    0.0000 C   0  0  0  0  0  0  0  0  0  0  0  0
    1.1976    0.8108    0.0000 C   0  0  0  0  0  0  0  0  0  0  0  0
    2.0226    0.8108    0.0000 C   0  0  0  0  0  0  0  0  0  0  0  0
    0.7851    0.0963    0.0000 C   0  0  0  0  0  0  0  0  0  0  0  0
    1.1976   -0.6182    0.0000 O   0  0  0  0  0  0  0  0  0  0  0  0
   -0.0399    0.0963    0.0000 Cl  0  0  0  0  0  0  0  0  0  0  0  0
  1  2  1  0
  2  3  1  0
  2  4  1  0
  4  5  2  0
  4  6  1  0
M  END
>  <id>  (7) 
1673

>  <casrn>  (7) 
79-30-1

>  <smiles (First)>  (7) 


>  <Molecular weight>  (7) 
106.55078125

>  <name>  (7) 
2-methylpropanoyl chloride

>  <Outcome>  (7) 
1

>  <Molecule (RDKit Mol) (InChI Code)>  (7) 
InChI=1S/C4H7ClO/c1-3(2)4(5)6/h3H,1-2H3

>  <reference>  (7) 
ECHA

>  <molecule_form>  (7) 
V

>  <ID>  (7) 


>  <SMILES>  (7) 
CC(C)C(=O)Cl

>  <ROMol>  (7) 
<rdkit.Chem.rdchem.Mol object at 0x0000027F62463BA0>

$$$$

     RDKit          2D

  9  9  0  0  0  0  0  0  0  0999 V2000
    2.2595   -0.0206    0.0000 C   0  0  0  0  0  0  0  0  0  0  0  0
    1.5450    0.3919    0.0000 N   0  0  0  0  0  0  0  0  0  0  0  0
    1.5450    1.2169    0.0000 C   0  0  0  0  0  0  0  0  0  0  0  0
    0.8305   -0.0206    0.0000 C   0  0  0  0  0  0  0  0  0  0  0  0
    0.1161    0.3919    0.0000 C   0  0  0  0  0  0  0  0  0  0  0  0
   -0.5984   -0.0206    0.0000 C   0  0  0  0  0  0  0  0  0  0  0  0
   -0.5984   -0.8456    0.0000 C   0  0  0  0  0  0  0  0  0  0  0  0
    0.1161   -1.2581    0.0000 C   0  0  0  0  0  0  0  0  0  0  0  0
    0.8305   -0.8456    0.0000 C   0  0  0  0  0  0  0  0  0  0  0  0
  1  2  1  0
  2  3  1  0
  2  4  1  0
  5  4  2  0
  6  5  1  0
  7  6  2  0
  8  7  1  0
  9  8  2  0
  4  9  1  0
M  END
>  <id>  (8) 
218189

>  <casrn>  (8) 
121-69-7

>  <smiles (First)>  (8) 
CN(C)c1ccccc1

>  <Molecular weight>  (8) 
121.17964172363281

>  <name>  (8) 
N,N-Dimethylaniline

>  <Outcome>  (8) 
0

>  <Molecule (RDKit Mol) (InChI Code)>  (8) 
InChI=1S/C8H11N/c1-9(2)8-6-4-3-5-7-8/h3-7H,1-2H3

>  <reference>  (8) 
ToxValDB

>  <molecule_form>  (8) 
not specified

>  <ID>  (8) 


>  <SMILES>  (8) 
CN(C)c1ccccc1

>  <ROMol>  (8) 
<rdkit.Chem.rdchem.Mol object at 0x0000027F585CBEB0>

$$$$

     RDKit          2D

 11 10  0  0  0  0  0  0  0  0999 V2000
    2.2836    2.9714    0.0000 C   0  0  0  0  0  0  0  0  0  0  0  0
    2.9980    2.5589    0.0000 C   0  0  0  0  0  0  0  0  0  0  0  0
    3.7125    2.1464    0.0000 C   0  0  0  0  0  0  0  0  0  0  0  0
    4.4270    2.5589    0.0000 O   0  0  0  0  0  0  0  0  0  0  0  0
    5.1414    2.1464    0.0000 C   0  0  0  0  0  0  0  0  0  0  0  0
    5.1414    1.3214    0.0000 O   0  0  0  0  0  0  0  0  0  0  0  0
    5.8559    2.5589    0.0000 N   0  0  0  0  0  0  0  0  0  0  0  0
    6.5704    2.1464    0.0000 C   0  0  0  0  0  0  0  0  0  0  0  0
    7.2849    2.5589    0.0000 C   0  0  0  0  0  0  0  0  0  0  0  0
    7.9993    2.1464    0.0000 C   0  0  0  0  0  0  0  0  0  0  0  0
    8.7138    2.5589    0.0000 C   0  0  0  0  0  0  0  0  0  0  0  0
  1  2  3  0
  2  3  1  0
  3  4  1  0
  4  5  1  0
  5  6  2  0
  5  7  1  0
  7  8  1  0
  8  9  1  0
  9 10  1  0
 10 11  1  0
M  END
>  <id>  (9) 
4298

>  <casrn>  (9) 
76114-73-3

>  <smiles (First)>  (9) 


>  <Molecular weight>  (9) 
155.19432067871094

>  <name>  (9) 
unnamed [76114-73-3]

>  <Outcome>  (9) 
1

>  <Molecule (RDKit Mol) (InChI Code)>  (9) 
InChI=1S/C8H13NO2/c1-3-5-6-9-8(10)11-7-4-2/h2H,3,5-7H2,1H3,(H,9,10)

>  <reference>  (9) 
ECHA

>  <molecule_form>  (9) 
A

>  <ID>  (9) 


>  <SMILES>  (9) 
C#CCOC(=O)NCCCC

>  <ROMol>  (9) 
<rdkit.Chem.rdchem.Mol object at 0x0000027F58905A50>

$$$$

     RDKit          2D

 11 10  0  0  0  0  0  0  0  0999 V2000
    4.2355    3.2714    0.0000 C   0  0  0  0  0  0  0  0  0  0  0  0
    4.9500    2.8589    0.0000 C   0  0  0  0  0  0  0  0  0  0  0  0
    5.6645    3.2714    0.0000 C   0  0  0  0  0  0  0  0  0  0  0  0
    6.3789    2.8589    0.0000 C   0  0  0  0  0  0  0  0  0  0  0  0
    7.0934    3.2714    0.0000 C   0  0  0  0  0  0  0  0  0  0  0  0
    7.8079    2.8589    0.0000 C   0  0  0  0  0  0  0  0  0  0  0  0
    8.5224    3.2714    0.0000 C   0  0  0  0  0  0  0  0  0  0  0  0
    9.2368    2.8589    0.0000 C   0  0  0  0  0  0  0  0  0  0  0  0
    9.9513    3.2714    0.0000 C   0  0  0  0  0  0  0  0  0  0  0  0
   10.6658    2.8589    0.0000 C   0  0  0  0  0  0  0  0  0  0  0  0
   11.3802    3.2714    0.0000 C   0  0  0  0  0  0  0  0  0  0  0  0
  1  2  1  0
  2  3  1  0
  3  4  1  0
  4  5  1  0
  5  6  1  0
  6  7  1  0
  7  8  1  0
  8  9  1  0
  9 10  1  0
 10 11  1  0
M  END
>  <id>  (10) 
4143; 4139; 4137; 4138; 4146

>  <casrn>  (10) 
1120-21-4

>  <smiles (First)>  (10) 


>  <Molecular weight>  (10) 
156.30825805664062

>  <name>  (10) 
undecane

>  <Outcome>  (10) 
0

>  <Molecule (RDKit Mol) (InChI Code)>  (10) 
InChI=1S/C11H24/c1-3-5-7-9-11-10-8-6-4-2/h3-11H2,1-2H3

>  <reference>  (10) 
ECHA

>  <molecule_form>  (10) 
V; A

>  <ID>  (10) 


>  <SMILES>  (10) 
CCCCCCCCCCC

>  <ROMol>  (10) 
<rdkit.Chem.rdchem.Mol object at 0x0000027F584DE820>

$$$$

     RDKit          2D

  6  5  0  0  0  0  0  0  0  0999 V2000
    1.1797    1.1797    0.0000 C   0  0  0  0  0  0  0  0  0  0  0  0
    0.7672    0.4652    0.0000 C   0  0  0  0  0  0  0  0  0  0  0  0
    1.1797   -0.2493    0.0000 C   0  0  0  0  0  0  0  0  0  0  0  0
    0.7672   -0.9637    0.0000 C   0  0  0  0  0  0  0  0  0  0  0  0
    1.1797   -1.6782    0.0000 Cl  0  0  0  0  0  0  0  0  0  0  0  0
   -0.0578   -0.9637    0.0000 O   0  0  0  0  0  0  0  0  0  0  0  0
  1  2  1  0
  2  3  1  0
  3  4  1  0
  4  5  1  0
  4  6  2  0
M  END
>  <id>  (11) 
904927

>  <casrn>  (11) 
141-75-3

>  <smiles (First)>  (11) 
CCCC(Cl)=O

>  <Molecular weight>  (11) 
106.55078125

>  <name>  (11) 
Butyryl chloride

>  <Outcome>  (11) 
1

>  <Molecule (RDKit Mol) (InChI Code)>  (11) 
InChI=1S/C4H7ClO/c1-2-3-4(5)6/h2-3H2,1H3

>  <reference>  (11) 
ToxValDB

>  <molecule_form>  (11) 
not specified

>  <ID>  (11) 


>  <SMILES>  (11) 
CCCC(=O)Cl

>  <ROMol>  (11) 
<rdkit.Chem.rdchem.Mol object at 0x0000027F6244FF20>

$$$$

     RDKit          2D

 16 17  0  0  0  0  0  0  0  0999 V2000
    0.0000   -3.3000    0.0000 O   0  0  0  0  0  0  0  0  0  0  0  0
    0.7145   -2.8875    0.0000 C   0  0  0  0  0  0  0  0  0  0  0  0
    1.4289   -2.4750    0.0000 N   0  0  0  0  0  0  0  0  0  0  0  0
    1.4289   -1.6500    0.0000 C   0  0  0  0  0  0  0  0  0  0  0  0
    0.7145   -1.2375    0.0000 C   0  0  0  0  0  0  0  0  0  0  0  0
    0.7145   -0.4125    0.0000 C   0  0  0  0  0  0  0  0  0  0  0  0
    1.4289   -0.0000    0.0000 C   0  0  0  0  0  0  0  0  0  0  0  0
    2.1434   -0.4125    0.0000 C   0  0  0  0  0  0  0  0  0  0  0  0
    2.8579   -0.0000    0.0000 C   0  0  0  0  0  0  0  0  0  0  0  0
    2.8579    0.8250    0.0000 N   0  0  0  0  0  0  0  0  0  0  0  0
    2.1434    1.2375    0.0000 C   0  0  0  0  0  0  0  0  0  0  0  0
    1.4289    1.6500    0.0000 O   0  0  0  0  0  0  0  0  0  0  0  0
    3.5724   -0.4125    0.0000 C   0  0  0  0  0  0  0  0  0  0  0  0
    3.5724   -1.2375    0.0000 C   0  0  0  0  0  0  0  0  0  0  0  0
    2.8579   -1.6500    0.0000 C   0  0  0  0  0  0  0  0  0  0  0  0
    2.1434   -1.2375    0.0000 C   0  0  0  0  0  0  0  0  0  0  0  0
  1  2  2  0
  2  3  2  0
  3  4  1  0
  4  5  2  0
  5  6  1  0
  6  7  2  0
  7  8  1  0
  8  9  2  0
  9 10  1  0
 10 11  2  0
 11 12  2  0
  9 13  1  0
 13 14  2  0
 14 15  1  0
 15 16  2  0
  4 16  1  0
  8 16  1  0
M  END
>  <id>  (12) 
1072; 1073

>  <casrn>  (12) 
3173-72-6

>  <smiles (First)>  (12) 


>  <Molecular weight>  (12) 
210.18824768066406

>  <name>  (12) 
1,5-diisocyanatonaphthalene

>  <Outcome>  (12) 
1

>  <Molecule (RDKit Mol) (InChI Code)>  (12) 
InChI=1S/C12H6N2O2/c15-7-13-11-5-1-3-9-10(11)4-2-6-12(9)14-8-16/h1-6H

>  <reference>  (12) 
ECHA

>  <molecule_form>  (12) 
A

>  <ID>  (12) 


>  <SMILES>  (12) 
O=C=Nc1cccc2c(N=C=O)cccc12

>  <ROMol>  (12) 
<rdkit.Chem.rdchem.Mol object at 0x0000027F585E27B0>

$$$$

     RDKit          2D

 19 20  0  0  0  0  0  0  0  0999 V2000
   -2.0596    0.4307    0.0000 O   0  0  0  0  0  0  0  0  0  0  0  0
   -1.3452    0.0182    0.0000 C   0  0  0  0  0  0  0  0  0  0  0  0
   -0.6307   -0.3943    0.0000 N   0  0  0  0  0  0  0  0  0  0  0  0
   -0.6307   -1.2193    0.0000 C   0  0  0  0  0  0  0  0  0  0  0  0
    0.0838   -1.6318    0.0000 C   0  0  0  0  0  0  0  0  0  0  0  0
    0.0838   -2.4568    0.0000 C   0  0  0  0  0  0  0  0  0  0  0  0
   -0.6307   -2.8693    0.0000 C   0  0  0  0  0  0  0  0  0  0  0  0
   -0.6307   -3.6943    0.0000 C   0  0  0  0  0  0  0  0  0  0  0  0
    0.0838   -4.1068    0.0000 C   0  0  0  0  0  0  0  0  0  0  0  0
    0.7982   -3.6943    0.0000 C   0  0  0  0  0  0  0  0  0  0  0  0
    1.5127   -4.1068    0.0000 C   0  0  0  0  0  0  0  0  0  0  0  0
    1.5127   -4.9318    0.0000 C   0  0  0  0  0  0  0  0  0  0  0  0
    0.7982   -5.3443    0.0000 C   0  0  0  0  0  0  0  0  0  0  0  0
    0.0838   -4.9318    0.0000 C   0  0  0  0  0  0  0  0  0  0  0  0
   -0.6307   -5.3443    0.0000 N   0  0  0  0  0  0  0  0  0  0  0  0
   -0.6307   -6.1693    0.0000 C   0  0  0  0  0  0  0  0  0  0  0  0
   -0.6307   -6.9943    0.0000 O   0  0  0  0  0  0  0  0  0  0  0  0
   -1.3452   -2.4568    0.0000 C   0  0  0  0  0  0  0  0  0  0  0  0
   -1.3452   -1.6318    0.0000 C   0  0  0  0  0  0  0  0  0  0  0  0
  1  2  2  0
  2  3  2  0
  3  4  1  0
  4  5  2  0
  5  6  1  0
  6  7  2  0
  7  8  1  0
  8  9  1  0
  9 10  2  0
 10 11  1  0
 11 12  2  0
 12 13  1  0
 13 14  2  0
  9 14  1  0
 14 15  1  0
 15 16  2  0
 16 17  2  0
  7 18  1  0
 18 19  2  0
  4 19  1  0
M  END
>  <id>  (13) 
1170

>  <casrn>  (13) 
5873-54-1

>  <smiles (First)>  (13) 


>  <Molecular weight>  (13) 
250.25210571289062

>  <name>  (13) 
1-isocyanato-2-(4-isocyanatobenzyl)benzene

>  <Outcome>  (13) 
1

>  <Molecule (RDKit Mol) (InChI Code)>  (13) 
InChI=1S/C15H10N2O2/c18-10-16-14-7-5-12(6-8-14)9-13-3-1-2-4-15(13)17-11-19/h1-8H,9H2

>  <reference>  (13) 
ECHA

>  <molecule_form>  (13) 
A

>  <ID>  (13) 


>  <SMILES>  (13) 
O=C=Nc1ccc(Cc2ccccc2N=C=O)cc1

>  <ROMol>  (13) 
<rdkit.Chem.rdchem.Mol object at 0x0000027F58905C10>

$$$$

     RDKit          2D

  6  6  0  0  0  0  0  0  0  0999 V2000
   -0.3744    0.5149    0.0000 C   0  0  0  0  0  0  0  0  0  0  0  0
    0.4506    0.5149    0.0000 C   0  0  0  0  0  0  0  0  0  0  0  0
    1.0340    1.0982    0.0000 C   0  0  0  0  0  0  0  0  0  0  0  0
    1.6174    0.5149    0.0000 C   0  0  0  0  0  0  0  0  0  0  0  0
    2.4424    0.5149    0.0000 O   0  0  0  0  0  0  0  0  0  0  0  0
    1.0340   -0.0685    0.0000 O   0  0  0  0  0  0  0  0  0  0  0  0
  1  2  2  0
  2  3  1  0
  3  4  1  0
  4  5  2  0
  4  6  1  0
  2  6  1  0
M  END
>  <id>  (14) 
1846

>  <casrn>  (14) 
674-82-8

>  <smiles (First)>  (14) 


>  <Molecular weight>  (14) 
84.0733642578125

>  <name>  (14) 
4-methyleneoxetan-2-one

>  <Outcome>  (14) 
1

>  <Molecule (RDKit Mol) (InChI Code)>  (14) 
InChI=1S/C4H4O2/c1-3-2-4(5)6-3/h1-2H2

>  <reference>  (14) 
ECHA

>  <molecule_form>  (14) 
A

>  <ID>  (14) 


>  <SMILES>  (14) 
C=C1CC(=O)O1

>  <ROMol>  (14) 
<rdkit.Chem.rdchem.Mol object at 0x0000027F5C1445F0>

$$$$

     RDKit          2D

  5  5  0  0  0  0  0  0  0  0999 V2000
    0.5666    1.1125    0.0000 C   0  0  0  0  0  0  0  0  0  0  0  0
    1.2340    0.6276    0.0000 C   0  0  0  0  0  0  0  0  0  0  0  0
    0.9791   -0.1570    0.0000 O   0  0  0  0  0  0  0  0  0  0  0  0
    0.1541   -0.1570    0.0000 C   0  0  0  0  0  0  0  0  0  0  0  0
   -0.1009    0.6276    0.0000 O   0  0  0  0  0  0  0  0  0  0  0  0
  1  2  1  0
  2  3  1  0
  3  4  1  0
  4  5  1  0
  1  5  1  0
M  END
>  <id>  (15) 
997

>  <casrn>  (15) 
646-06-0

>  <smiles (First)>  (15) 


>  <Molecular weight>  (15) 
74.07854461669922

>  <name>  (15) 
1,3-dioxolane

>  <Outcome>  (15) 
0

>  <Molecule (RDKit Mol) (InChI Code)>  (15) 
InChI=1S/C3H6O2/c1-2-5-3-4-1/h1-3H2

>  <reference>  (15) 
ECHA

>  <molecule_form>  (15) 
V

>  <ID>  (15) 


>  <SMILES>  (15) 
C1COCO1

>  <ROMol>  (15) 
<rdkit.Chem.rdchem.Mol object at 0x0000027F584D5E40>

$$$$

     RDKit          2D

  9  9  0  0  0  0  0  0  0  0999 V2000
   -0.5626    2.9849    0.0000 O   0  0  0  0  0  0  0  0  0  0  0  0
    0.1518    2.5724    0.0000 C   0  0  0  0  0  0  0  0  0  0  0  0
    0.8663    2.1599    0.0000 N   0  0  0  0  0  0  0  0  0  0  0  0
    0.8663    1.3349    0.0000 C   0  0  0  0  0  0  0  0  0  0  0  0
    1.5808    0.9224    0.0000 C   0  0  0  0  0  0  0  0  0  0  0  0
    1.5808    0.0974    0.0000 C   0  0  0  0  0  0  0  0  0  0  0  0
    0.8663   -0.3151    0.0000 C   0  0  0  0  0  0  0  0  0  0  0  0
    0.1518    0.0974    0.0000 C   0  0  0  0  0  0  0  0  0  0  0  0
    0.1518    0.9224    0.0000 C   0  0  0  0  0  0  0  0  0  0  0  0
  1  2  2  0
  2  3  2  0
  3  4  1  0
  4  5  1  0
  5  6  1  0
  6  7  1  0
  7  8  1  0
  8  9  1  0
  4  9  1  0
M  END
>  <id>  (16) 
3373

>  <casrn>  (16) 
3173-53-3

>  <smiles (First)>  (16) 


>  <Molecular weight>  (16) 
125.16834259033203

>  <name>  (16) 
isocyanatocyclohexane

>  <Outcome>  (16) 
1

>  <Molecule (RDKit Mol) (InChI Code)>  (16) 
InChI=1S/C7H11NO/c9-6-8-7-4-2-1-3-5-7/h7H,1-5H2

>  <reference>  (16) 
ECHA

>  <molecule_form>  (16) 
V

>  <ID>  (16) 


>  <SMILES>  (16) 
O=C=NC1CCCCC1

>  <ROMol>  (16) 
<rdkit.Chem.rdchem.Mol object at 0x0000027F584196D0>

$$$$

     RDKit          2D

  6  5  0  0  0  0  0  0  0  0999 V2000
   -0.1913    0.7125    0.0000 C   0  0  0  0  0  0  0  0  0  0  0  0
    0.5231    1.1250    0.0000 C   0  0  0  0  0  0  0  0  0  0  0  0
    1.2376    0.7125    0.0000 O   0  0  0  0  0  0  0  0  0  0  0  0
    1.9521    1.1250    0.0000 C   0  0  0  0  0  0  0  0  0  0  0  0
    2.6666    0.7125    0.0000 C   0  0  0  0  0  0  0  0  0  0  0  0
    3.3810    1.1250    0.0000 N   0  0  0  0  0  0  0  0  0  0  0  0
  1  2  1  0
  2  3  1  0
  3  4  1  0
  4  5  1  0
  5  6  1  0
M  END
>  <id>  (17) 
1454

>  <casrn>  (17) 
110-76-9

>  <smiles (First)>  (17) 


>  <Molecular weight>  (17) 
90.14418029785156

>  <name>  (17) 
2-ethoxyethanamine

>  <Outcome>  (17) 
0

>  <Molecule (RDKit Mol) (InChI Code)>  (17) 
InChI=1S/C4H11NO/c1-2-6-4-3-5/h2-5H2,1H3

>  <reference>  (17) 
ECHA

>  <molecule_form>  (17) 
V

>  <ID>  (17) 


>  <SMILES>  (17) 
CCOCCN

>  <ROMol>  (17) 
<rdkit.Chem.rdchem.Mol object at 0x0000027F6246B040>

$$$$

     RDKit          2D

 19 21  0  0  0  0  0  0  0  0999 V2000
   -0.6902    1.9719    0.0000 C   0  0  0  0  0  0  0  0  0  0  0  0
    0.0243    1.5594    0.0000 C   0  0  0  0  0  0  0  0  0  0  0  0
    0.0243    0.7344    0.0000 C   0  0  0  0  0  0  0  0  0  0  0  0
   -0.6902    0.3219    0.0000 C   0  0  0  0  0  0  0  0  0  0  0  0
   -0.6902   -0.5031    0.0000 P   0  0  0  0  0  0  0  0  0  0  0  0
   -1.4047   -0.9156    0.0000 C   0  0  0  0  0  0  0  0  0  0  0  0
   -1.4047   -1.7406    0.0000 C   0  0  0  0  0  0  0  0  0  0  0  0
   -2.1192   -2.1531    0.0000 C   0  0  0  0  0  0  0  0  0  0  0  0
   -2.8336   -1.7406    0.0000 C   0  0  0  0  0  0  0  0  0  0  0  0
   -2.8336   -0.9156    0.0000 C   0  0  0  0  0  0  0  0  0  0  0  0
   -2.1192   -0.5031    0.0000 C   0  0  0  0  0  0  0  0  0  0  0  0
    0.0243   -0.9156    0.0000 C   0  0  0  0  0  0  0  0  0  0  0  0
    0.7387   -0.5031    0.0000 C   0  0  0  0  0  0  0  0  0  0  0  0
    1.4532   -0.9156    0.0000 C   0  0  0  0  0  0  0  0  0  0  0  0
    1.4532   -1.7406    0.0000 C   0  0  0  0  0  0  0  0  0  0  0  0
    0.7387   -2.1531    0.0000 C   0  0  0  0  0  0  0  0  0  0  0  0
    0.0243   -1.7406    0.0000 C   0  0  0  0  0  0  0  0  0  0  0  0
   -1.4047    0.7344    0.0000 C   0  0  0  0  0  0  0  0  0  0  0  0
   -1.4047    1.5594    0.0000 C   0  0  0  0  0  0  0  0  0  0  0  0
  1  2  2  0
  2  3  1  0
  3  4  2  0
  4  5  1  0
  5  6  1  0
  6  7  2  0
  7  8  1  0
  8  9  2  0
  9 10  1  0
 10 11  2  0
  6 11  1  0
  5 12  1  0
 12 13  2  0
 13 14  1  0
 14 15  2  0
 15 16  1  0
 16 17  2  0
 12 17  1  0
  4 18  1  0
 18 19  2  0
  1 19  1  0
M  END
>  <id>  (18) 
4107

>  <casrn>  (18) 
603-35-0

>  <smiles (First)>  (18) 


>  <Molecular weight>  (18) 
262.28546142578125

>  <name>  (18) 
triphenylphosphane

>  <Outcome>  (18) 
0

>  <Molecule (RDKit Mol) (InChI Code)>  (18) 
InChI=1S/C18H15P/c1-4-10-16(11-5-1)19(17-12-6-2-7-13-17)18-14-8-3-9-15-18/h1-15H

>  <reference>  (18) 
ECHA

>  <molecule_form>  (18) 
A

>  <ID>  (18) 


>  <SMILES>  (18) 
c1ccc(P(c2ccccc2)c2ccccc2)cc1

>  <ROMol>  (18) 
<rdkit.Chem.rdchem.Mol object at 0x0000027F584DE2E0>

$$$$

     RDKit          2D

  6  5  0  0  0  0  0  0  0  0999 V2000
    2.5918   -1.5073    0.0000 C   0  0  0  0  0  0  0  0  0  0  0  0
    2.1793   -0.7928    0.0000 C   0  0  0  0  0  0  0  0  0  0  0  0
    2.5918   -0.0783    0.0000 C   0  0  0  0  0  0  0  0  0  0  0  0
    1.3543   -0.7928    0.0000 C   0  0  0  0  0  0  0  0  0  0  0  0
    0.9418   -0.0783    0.0000 C   0  0  0  0  0  0  0  0  0  0  0  0
    0.1168   -0.0783    0.0000 O   0  0  0  0  0  0  0  0  0  0  0  0
  1  2  1  0
  2  3  1  0
  2  4  1  0
  4  5  1  0
  5  6  2  0
M  END
>  <id>  (19) 
1789

>  <casrn>  (19) 
590-86-3

>  <smiles (First)>  (19) 


>  <Molecular weight>  (19) 
86.1323013305664

>  <name>  (19) 
3-methylbutanal

>  <Outcome>  (19) 
0

>  <Molecule (RDKit Mol) (InChI Code)>  (19) 
InChI=1S/C5H10O/c1-5(2)3-4-6/h4-5H,3H2,1-2H3

>  <reference>  (19) 
ECHA

>  <molecule_form>  (19) 
V

>  <ID>  (19) 


>  <SMILES>  (19) 
CC(C)CC=O

>  <ROMol>  (19) 
<rdkit.Chem.rdchem.Mol object at 0x0000027F584AC0B0>

$$$$

     RDKit          2D

 14 13  0  0  0  0  0  0  0  0999 V2000
    4.9100    0.3499    0.0000 C   0  0  0  0  0  0  0  0  0  0  0  0
    4.1955   -0.0626    0.0000 C   0  0  0  0  0  0  0  0  0  0  0  0
    3.4810    0.3499    0.0000 C   0  0  0  0  0  0  0  0  0  0  0  0
    3.8935    1.0643    0.0000 C   0  0  0  0  0  0  0  0  0  0  0  0
    3.0685   -0.3646    0.0000 O   0  0  0  0  0  0  0  0  0  0  0  0
    2.2435   -0.3646    0.0000 O   0  0  0  0  0  0  0  0  0  0  0  0
    2.7666    0.7624    0.0000 O   0  0  0  0  0  0  0  0  0  0  0  0
    2.0521    0.3499    0.0000 O   0  0  0  0  0  0  0  0  0  0  0  0
    1.3376    0.7624    0.0000 C   0  0  0  0  0  0  0  0  0  0  0  0
    1.7501    1.4768    0.0000 C   0  0  0  0  0  0  0  0  0  0  0  0
    0.6231    1.1749    0.0000 C   0  0  0  0  0  0  0  0  0  0  0  0
   -0.0913    0.7624    0.0000 C   0  0  0  0  0  0  0  0  0  0  0  0
    0.9251    0.0479    0.0000 O   0  0  0  0  0  0  0  0  0  0  0  0
    0.1001    0.0479    0.0000 O   0  0  0  0  0  0  0  0  0  0  0  0
  1  2  1  0
  2  3  1  0
  3  4  1  0
  3  5  1  0
  5  6  1  0
  3  7  1  0
  7  8  1  0
  8  9  1  0
  9 10  1  0
  9 11  1  0
 11 12  1  0
  9 13  1  0
 13 14  1  0
M  END
>  <id>  (20) 
4176

>  <casrn>  (20) 
1338-23-4

>  <smiles (First)>  (20) 


>  <Molecular weight>  (20) 
210.2249298095703

>  <name>  (20) 
unnamed [1338-23-4]

>  <Outcome>  (20) 
1

>  <Molecule (RDKit Mol) (InChI Code)>  (20) 
InChI=1S/C8H18O6/c1-5-7(3,11-9)13-14-8(4,6-2)12-10/h9-10H,5-6H2,1-4H3

>  <reference>  (20) 
ECHA

>  <molecule_form>  (20) 
A

>  <ID>  (20) 


>  <SMILES>  (20) 
CCC(C)(OO)OOC(C)(CC)OO

>  <ROMol>  (20) 
<rdkit.Chem.rdchem.Mol object at 0x0000027F5C144A50>

$$$$

     RDKit          2D

 11 11  0  0  0  0  0  0  0  0999 V2000
    0.7145    2.0625    0.0000 C   0  0  0  0  0  0  0  0  0  0  0  0
    0.7145    1.2375    0.0000 C   0  0  0  0  0  0  0  0  0  0  0  0
    1.4289    0.8250    0.0000 C   0  0  0  0  0  0  0  0  0  0  0  0
    1.4289   -0.0000    0.0000 C   0  0  0  0  0  0  0  0  0  0  0  0
    0.7145   -0.4125    0.0000 C   0  0  0  0  0  0  0  0  0  0  0  0
    0.7145   -1.2375    0.0000 N   0  0  0  0  0  0  0  0  0  0  0  0
    1.4289   -1.6500    0.0000 C   0  0  0  0  0  0  0  0  0  0  0  0
    2.1434   -2.0625    0.0000 O   0  0  0  0  0  0  0  0  0  0  0  0
   -0.0000   -0.0000    0.0000 C   0  0  0  0  0  0  0  0  0  0  0  0
   -0.0000    0.8250    0.0000 C   0  0  0  0  0  0  0  0  0  0  0  0
   -0.7145    1.2375    0.0000 Cl  0  0  0  0  0  0  0  0  0  0  0  0
  1  2  1  0
  2  3  2  0
  3  4  1  0
  4  5  2  0
  5  6  1  0
  6  7  2  0
  7  8  2  0
  5  9  1  0
  9 10  2  0
  2 10  1  0
 10 11  1  0
M  END
>  <id>  (21) 
1430

>  <casrn>  (21) 
28479-22-3

>  <smiles (First)>  (21) 


>  <Molecular weight>  (21) 
167.59234619140625

>  <name>  (21) 
2-chloro-4-isocyanato-1-methylbenzene

>  <Outcome>  (21) 
1

>  <Molecule (RDKit Mol) (InChI Code)>  (21) 
InChI=1S/C8H6ClNO/c1-6-2-3-7(10-5-11)4-8(6)9/h2-4H,1H3

>  <reference>  (21) 
ECHA

>  <molecule_form>  (21) 
A

>  <ID>  (21) 


>  <SMILES>  (21) 
Cc1ccc(N=C=O)cc1Cl

>  <ROMol>  (21) 
<rdkit.Chem.rdchem.Mol object at 0x0000027F584D5510>

$$$$

     RDKit          2D

  9  9  0  0  0  0  0  0  0  0999 V2000
    0.7145    2.0625    0.0000 N   0  0  0  0  0  0  0  0  0  0  0  0
    0.7145    1.2375    0.0000 C   0  0  0  0  0  0  0  0  0  0  0  0
    1.4289    0.8250    0.0000 N   0  0  0  0  0  0  0  0  0  0  0  0
    1.4289   -0.0000    0.0000 C   0  0  0  0  0  0  0  0  0  0  0  0
    2.1434   -0.4125    0.0000 O   0  0  0  0  0  0  0  0  0  0  0  0
    0.7145   -0.4125    0.0000 N   0  0  0  0  0  0  0  0  0  0  0  0
    0.0000   -0.0000    0.0000 C   0  0  0  0  0  0  0  0  0  0  0  0
    0.0000    0.8250    0.0000 C   0  0  0  0  0  0  0  0  0  0  0  0
   -0.7145    1.2375    0.0000 F   0  0  0  0  0  0  0  0  0  0  0  0
  1  2  1  0
  2  3  2  0
  3  4  1  0
  4  5  2  0
  4  6  1  0
  6  7  1  0
  7  8  2  0
  2  8  1  0
  8  9  1  0
M  END
>  <id>  (22) 
1828

>  <casrn>  (22) 
2022-85-7

>  <smiles (First)>  (22) 


>  <Molecular weight>  (22) 
129.09246826171875

>  <name>  (22) 
4-amino-5-fluoro-1,2-dihydropyrimidin-2-one

>  <Outcome>  (22) 
0

>  <Molecule (RDKit Mol) (InChI Code)>  (22) 
InChI=1S/C4H4FN3O/c5-2-1-7-4(9)8-3(2)6/h1H,(H3,6,7,8,9)

>  <reference>  (22) 
ECHA

>  <molecule_form>  (22) 
A

>  <ID>  (22) 


>  <SMILES>  (22) 
Nc1nc(=O)[nH]cc1F

>  <ROMol>  (22) 
<rdkit.Chem.rdchem.Mol object at 0x0000027F78E2C4A0>

$$$$

     RDKit          2D

  8  8  0  0  0  0  0  0  0  0999 V2000
    2.8040   -0.0846    0.0000 O   0  0  0  0  0  0  0  0  0  0  0  0
    1.9997    0.0989    0.0000 C   0  0  0  0  0  0  0  0  0  0  0  0
    1.4853   -0.5461    0.0000 C   0  0  0  0  0  0  0  0  0  0  0  0
    0.6603   -0.5461    0.0000 C   0  0  0  0  0  0  0  0  0  0  0  0
    0.1459    0.0989    0.0000 C   0  0  0  0  0  0  0  0  0  0  0  0
    0.3295    0.9033    0.0000 C   0  0  0  0  0  0  0  0  0  0  0  0
    1.0728    1.2612    0.0000 C   0  0  0  0  0  0  0  0  0  0  0  0
    1.8161    0.9033    0.0000 N   0  0  0  0  0  0  0  0  0  0  0  0
  1  2  2  0
  2  3  1  0
  3  4  1  0
  4  5  1  0
  5  6  1  0
  6  7  1  0
  7  8  1  0
  2  8  1  0
M  END
>  <id>  (23) 
2604

>  <casrn>  (23) 
105-60-2

>  <smiles (First)>  (23) 


>  <Molecular weight>  (23) 
113.15763854980469

>  <name>  (23) 
azepan-2-one

>  <Outcome>  (23) 
0

>  <Molecule (RDKit Mol) (InChI Code)>  (23) 
InChI=1S/C6H11NO/c8-6-4-2-1-3-5-7-6/h1-5H2,(H,7,8)

>  <reference>  (23) 
ECHA

>  <molecule_form>  (23) 
A

>  <ID>  (23) 


>  <SMILES>  (23) 
O=C1CCCCCN1

>  <ROMol>  (23) 
<rdkit.Chem.rdchem.Mol object at 0x0000027F584AC350>

$$$$

     RDKit          2D

  7  8  0  0  0  0  0  0  0  0999 V2000
   -0.2268    0.5418    0.0000 C   0  0  0  0  0  0  0  0  0  0  0  0
   -0.2268   -0.2832    0.0000 C   0  0  0  0  0  0  0  0  0  0  0  0
    0.4877   -0.6957    0.0000 C   0  0  0  0  0  0  0  0  0  0  0  0
    1.2022   -0.2832    0.0000 C   0  0  0  0  0  0  0  0  0  0  0  0
    1.2022    0.5418    0.0000 C   0  0  0  0  0  0  0  0  0  0  0  0
    0.4877    0.9543    0.0000 C   0  0  0  0  0  0  0  0  0  0  0  0
    0.2814    0.1293    0.0000 C   0  0  0  0  0  0  0  0  0  0  0  0
  1  2  2  0
  2  3  1  0
  3  4  1  0
  4  5  1  0
  5  6  1  0
  1  6  1  0
  6  7  1  0
  3  7  1  0
M  END
>  <id>  (24) 
2645

>  <casrn>  (24) 
498-66-8

>  <smiles (First)>  (24) 


>  <Molecular weight>  (24) 
94.15430450439453

>  <name>  (24) 
bicyclo[2.2.1]hept-2-ene

>  <Outcome>  (24) 
0

>  <Molecule (RDKit Mol) (InChI Code)>  (24) 
InChI=1S/C7H10/c1-2-7-4-3-6(1)5-7/h1-2,6-7H,3-5H2

>  <reference>  (24) 
ECHA

>  <molecule_form>  (24) 
A

>  <ID>  (24) 


>  <SMILES>  (24) 
C1=CC2CCC1C2

>  <ROMol>  (24) 
<rdkit.Chem.rdchem.Mol object at 0x0000027F624DD190>

$$$$

     RDKit          2D

 32 35  0  0  0  0  0  0  0  0999 V2000
    0.0438   -0.0099    0.0000 C   0  0  0  0  0  0  0  0  0  0  0  0
    0.7582   -0.4224    0.0000 C   0  0  0  0  0  0  0  0  0  0  0  0
    0.7582   -1.2474    0.0000 N   0  0  0  0  0  0  0  0  0  0  0  0
    1.4727   -1.6599    0.0000 C   0  0  0  0  0  0  0  0  0  0  0  0
    2.1872   -1.2474    0.0000 C   0  0  0  0  0  0  0  0  0  0  0  0
    2.9017   -1.6599    0.0000 C   0  0  0  0  0  0  0  0  0  0  0  0
    3.6161   -1.2474    0.0000 O   0  0  0  0  0  0  0  0  0  0  0  0
    4.3306   -1.6599    0.0000 C   0  0  0  0  0  0  0  0  0  0  0  0
    5.0451   -1.2474    0.0000 C   0  0  0  0  0  0  0  0  0  0  0  0
    5.7595   -1.6599    0.0000 C   0  0  0  0  0  0  0  0  0  0  0  0
    6.4740   -1.2474    0.0000 N   0  0  0  0  0  0  0  0  0  0  0  0
    6.4740   -0.4224    0.0000 C   0  0  0  0  0  0  0  0  0  0  0  0
    7.1885   -0.0099    0.0000 C   0  0  0  0  0  0  0  0  0  0  0  0
    5.7595   -2.4849    0.0000 C   0  0  0  0  0  0  0  0  0  0  0  0
    6.4740   -2.8974    0.0000 C   0  0  0  0  0  0  0  0  0  0  0  0
    5.0451   -2.8974    0.0000 C   0  0  0  0  0  0  0  0  0  0  0  0
    4.3306   -2.4849    0.0000 C   0  0  0  0  0  0  0  0  0  0  0  0
    3.6161   -2.8974    0.0000 C   0  0  0  0  0  0  0  0  0  0  0  0
    3.6161   -3.7224    0.0000 C   0  0  0  0  0  0  0  0  0  0  0  0
    4.3306   -4.1349    0.0000 C   0  0  0  0  0  0  0  0  0  0  0  0
    4.3306   -4.9599    0.0000 C   0  0  0  0  0  0  0  0  0  0  0  0
    3.6161   -5.3724    0.0000 C   0  0  0  0  0  0  0  0  0  0  0  0
    2.9017   -4.9599    0.0000 C   0  0  0  0  0  0  0  0  0  0  0  0
    2.9017   -4.1349    0.0000 C   0  0  0  0  0  0  0  0  0  0  0  0
    2.1872   -3.7224    0.0000 C   0  0  0  0  0  0  0  0  0  0  0  0
    1.7023   -3.0550    0.0000 O   0  0  0  0  0  0  0  0  0  0  0  0
    1.4727   -4.1349    0.0000 O   0  0  0  0  0  0  0  0  0  0  0  0
    0.7582   -3.7224    0.0000 C   0  0  0  0  0  0  0  0  0  0  0  0
    2.9017   -2.4849    0.0000 C   0  0  0  0  0  0  0  0  0  0  0  0
    2.1872   -2.8974    0.0000 C   0  0  0  0  0  0  0  0  0  0  0  0
    1.4727   -2.4849    0.0000 C   0  0  0  0  0  0  0  0  0  0  0  0
    0.7582   -2.8974    0.0000 C   0  0  0  0  0  0  0  0  0  0  0  0
  1  2  1  0
  2  3  1  0
  3  4  1  0
  4  5  2  0
  5  6  1  0
  6  7  2  0
  7  8  1  0
  8  9  2  0
  9 10  1  0
 10 11  1  0
 11 12  1  0
 12 13  1  0
 10 14  2  0
 14 15  1  0
 14 16  1  0
 16 17  2  0
  8 17  1  0
 17 18  1  0
 18 19  1  0
 19 20  2  0
 20 21  1  0
 21 22  2  0
 22 23  1  0
 23 24  2  0
 19 24  1  0
 24 25  1  0
 25 26  2  0
 25 27  1  0
 27 28  1  0
 18 29  2  0
  6 29  1  0
 29 30  1  0
 30 31  2  0
  4 31  1  0
 31 32  1  0
M  CHG  1   7   1
M  END
>  <id>  (25) 
1738

>  <casrn>  (25) 
3068-39-1

>  <smiles (First)>  (25) 


>  <Molecular weight>  (25) 
429.53076171875

>  <name>  (25) 
3,6-bis(ethylamino)-9-[2-(methoxycarbonyl)phenyl]-2,7-dimethyl-10??????-xanthen-10-ylium chloride

>  <Outcome>  (25) 
1

>  <Molecule (RDKit Mol) (InChI Code)>  (25) 
InChI=1S/C27H29N2O3/c1-6-28-22-14-24-20(12-16(22)3)26(18-10-8-9-11-19(18)27(30)31-5)21-13-17(4)23(29-7-2)15-25(21)32-24/h8-15,28-29H,6-7H2,1-5H3/q+1

>  <reference>  (25) 
ECHA

>  <molecule_form>  (25) 
A

>  <ID>  (25) 


>  <SMILES>  (25) 
CCNc1cc2[o+]c3cc(NCC)c(C)cc3c(-c3ccccc3C(=O)OC)c2cc1C

>  <ROMol>  (25) 
<rdkit.Chem.rdchem.Mol object at 0x0000027F78E2CF90>

$$$$

     RDKit          2D

  9  8  0  0  0  0  0  0  0  0999 V2000
   -0.6161   -2.3069    0.0000 C   0  0  0  0  0  0  0  0  0  0  0  0
    0.0984   -1.8944    0.0000 C   0  0  0  0  0  0  0  0  0  0  0  0
    0.0984   -1.0694    0.0000 C   0  0  0  0  0  0  0  0  0  0  0  0
   -0.6161   -0.6569    0.0000 O   0  0  0  0  0  0  0  0  0  0  0  0
    0.8129   -0.6569    0.0000 O   0  0  0  0  0  0  0  0  0  0  0  0
    0.8129    0.1681    0.0000 C   0  0  0  0  0  0  0  0  0  0  0  0
    0.8129    0.9931    0.0000 C   0  0  0  0  0  0  0  0  0  0  0  0
    1.6379    0.1681    0.0000 C   0  0  0  0  0  0  0  0  0  0  0  0
   -0.0121    0.1681    0.0000 C   0  0  0  0  0  0  0  0  0  0  0  0
  1  2  2  0
  2  3  1  0
  3  4  2  0
  3  5  1  0
  5  6  1  0
  6  7  1  0
  6  8  1  0
  6  9  1  0
M  END
>  <id>  (26) 
3924

>  <casrn>  (26) 
1663-39-4

>  <smiles (First)>  (26) 


>  <Molecular weight>  (26) 
128.16897583007812

>  <name>  (26) 
tert-butyl prop-2-enoate

>  <Outcome>  (26) 
1

>  <Molecule (RDKit Mol) (InChI Code)>  (26) 
InChI=1S/C7H12O2/c1-5-6(8)9-7(2,3)4/h5H,1H2,2-4H3

>  <reference>  (26) 
ECHA

>  <molecule_form>  (26) 
V

>  <ID>  (26) 


>  <SMILES>  (26) 
C=CC(=O)OC(C)(C)C

>  <ROMol>  (26) 
<rdkit.Chem.rdchem.Mol object at 0x0000027F624DDD60>

$$$$

     RDKit          2D

  9  9  0  0  0  0  0  0  0  0999 V2000
   -0.0000    2.4750    0.0000 O   0  0  0  0  0  0  0  0  0  0  0  0
    0.7145    2.0625    0.0000 C   0  0  0  0  0  0  0  0  0  0  0  0
    1.4289    2.4750    0.0000 O   0  0  0  0  0  0  0  0  0  0  0  0
    0.7145    1.2375    0.0000 C   0  0  0  0  0  0  0  0  0  0  0  0
    1.4289    0.8250    0.0000 C   0  0  0  0  0  0  0  0  0  0  0  0
    1.4289    0.0000    0.0000 C   0  0  0  0  0  0  0  0  0  0  0  0
    0.7145   -0.4125    0.0000 C   0  0  0  0  0  0  0  0  0  0  0  0
   -0.0000    0.0000    0.0000 C   0  0  0  0  0  0  0  0  0  0  0  0
   -0.0000    0.8250    0.0000 C   0  0  0  0  0  0  0  0  0  0  0  0
  1  2  2  0
  2  3  1  0
  2  4  1  0
  4  5  2  0
  5  6  1  0
  6  7  2  0
  7  8  1  0
  8  9  2  0
  4  9  1  0
M  END
>  <id>  (27) 
2636

>  <casrn>  (27) 
65-85-0

>  <smiles (First)>  (27) 


>  <Molecular weight>  (27) 
122.12134552001953

>  <name>  (27) 
benzoic acid

>  <Outcome>  (27) 
0

>  <Molecule (RDKit Mol) (InChI Code)>  (27) 
InChI=1S/C7H6O2/c8-7(9)6-4-2-1-3-5-6/h1-5H,(H,8,9)

>  <reference>  (27) 
ECHA

>  <molecule_form>  (27) 
A

>  <ID>  (27) 


>  <SMILES>  (27) 
O=C(O)c1ccccc1

>  <ROMol>  (27) 
<rdkit.Chem.rdchem.Mol object at 0x0000027F5C144D60>

$$$$

     RDKit          2D

 11 10  0  0  0  0  0  0  0  0999 V2000
   -0.6105   -3.2206    0.0000 C   0  0  0  0  0  0  0  0  0  0  0  0
   -0.6105   -2.3956    0.0000 C   0  0  0  0  0  0  0  0  0  0  0  0
   -1.3250   -1.9831    0.0000 C   0  0  0  0  0  0  0  0  0  0  0  0
    0.1040   -1.9831    0.0000 C   0  0  0  0  0  0  0  0  0  0  0  0
    0.8184   -2.3956    0.0000 O   0  0  0  0  0  0  0  0  0  0  0  0
    0.1040   -1.1581    0.0000 O   0  0  0  0  0  0  0  0  0  0  0  0
    0.8184   -0.7456    0.0000 O   0  0  0  0  0  0  0  0  0  0  0  0
    0.8184    0.0794    0.0000 C   0  0  0  0  0  0  0  0  0  0  0  0
    0.8184    0.9044    0.0000 C   0  0  0  0  0  0  0  0  0  0  0  0
    1.6434    0.0794    0.0000 C   0  0  0  0  0  0  0  0  0  0  0  0
   -0.0066    0.0794    0.0000 C   0  0  0  0  0  0  0  0  0  0  0  0
  1  2  1  0
  2  3  1  0
  2  4  1  0
  4  5  2  0
  4  6  1  0
  6  7  1  0
  7  8  1  0
  8  9  1  0
  8 10  1  0
  8 11  1  0
M  END
>  <id>  (28) 
3914

>  <casrn>  (28) 
109-13-7

>  <smiles (First)>  (28) 


>  <Molecular weight>  (28) 
160.21084594726562

>  <name>  (28) 
tert-butyl 2-methylpropaneperoxoate

>  <Outcome>  (28) 
1

>  <Molecule (RDKit Mol) (InChI Code)>  (28) 
InChI=1S/C8H16O3/c1-6(2)7(9)10-11-8(3,4)5/h6H,1-5H3

>  <reference>  (28) 
ECHA

>  <molecule_form>  (28) 
V

>  <ID>  (28) 


>  <SMILES>  (28) 
CC(C)C(=O)OOC(C)(C)C

>  <ROMol>  (28) 
<rdkit.Chem.rdchem.Mol object at 0x0000027F624B1EB0>

$$$$

     RDKit          2D

 21 20  0  0  0  0  0  0  0  0999 V2000
    0.1093   -5.3619    0.0000 C   0  0  0  0  0  0  0  0  0  0  0  0
    0.8238   -4.9494    0.0000 C   0  0  0  0  0  0  0  0  0  0  0  0
    0.8238   -4.1244    0.0000 C   0  0  0  0  0  0  0  0  0  0  0  0
    1.6488   -4.1244    0.0000 F   0  0  0  0  0  0  0  0  0  0  0  0
   -0.0012   -4.1244    0.0000 F   0  0  0  0  0  0  0  0  0  0  0  0
    0.8238   -3.2994    0.0000 C   0  0  0  0  0  0  0  0  0  0  0  0
    1.6488   -3.2994    0.0000 F   0  0  0  0  0  0  0  0  0  0  0  0
   -0.0012   -3.2994    0.0000 F   0  0  0  0  0  0  0  0  0  0  0  0
    0.8238   -2.4744    0.0000 C   0  0  0  0  0  0  0  0  0  0  0  0
    1.6488   -2.4744    0.0000 F   0  0  0  0  0  0  0  0  0  0  0  0
   -0.0012   -2.4744    0.0000 F   0  0  0  0  0  0  0  0  0  0  0  0
    0.8238   -1.6494    0.0000 C   0  0  0  0  0  0  0  0  0  0  0  0
    1.6488   -1.6494    0.0000 F   0  0  0  0  0  0  0  0  0  0  0  0
   -0.0012   -1.6494    0.0000 F   0  0  0  0  0  0  0  0  0  0  0  0
    0.8238   -0.8244    0.0000 C   0  0  0  0  0  0  0  0  0  0  0  0
    1.6488   -0.8244    0.0000 F   0  0  0  0  0  0  0  0  0  0  0  0
   -0.0012   -0.8244    0.0000 F   0  0  0  0  0  0  0  0  0  0  0  0
    0.8238    0.0006    0.0000 C   0  0  0  0  0  0  0  0  0  0  0  0
    0.8238    0.8256    0.0000 F   0  0  0  0  0  0  0  0  0  0  0  0
    1.6488    0.0006    0.0000 F   0  0  0  0  0  0  0  0  0  0  0  0
   -0.0012    0.0006    0.0000 F   0  0  0  0  0  0  0  0  0  0  0  0
  1  2  1  0
  2  3  1  0
  3  4  1  0
  3  5  1  0
  3  6  1  0
  6  7  1  0
  6  8  1  0
  6  9  1  0
  9 10  1  0
  9 11  1  0
  9 12  1  0
 12 13  1  0
 12 14  1  0
 12 15  1  0
 15 16  1  0
 15 17  1  0
 15 18  1  0
 18 19  1  0
 18 20  1  0
 18 21  1  0
M  END
>  <id>  (29) 
313

>  <casrn>  (29) 
80793-17-5

>  <smiles (First)>  (29) 


>  <Molecular weight>  (29) 
348.10455322265625

>  <name>  (29) 
-

>  <Outcome>  (29) 
0

>  <Molecule (RDKit Mol) (InChI Code)>  (29) 
InChI=1S/C8H5F13/c1-2-3(9,10)4(11,12)5(13,14)6(15,16)7(17,18)8(19,20)21/h2H2,1H3

>  <reference>  (29) 
ECHA

>  <molecule_form>  (29) 
V

>  <ID>  (29) 


>  <SMILES>  (29) 
CCC(F)(F)C(F)(F)C(F)(F)C(F)(F)C(F)(F)C(F)(F)F

>  <ROMol>  (29) 
<rdkit.Chem.rdchem.Mol object at 0x0000027F5C149CF0>

$$$$

     RDKit          2D

  9  9  0  0  0  0  0  0  0  0999 V2000
    0.7145    2.0625    0.0000 O   0  0  0  0  0  0  0  0  0  0  0  0
    0.7145    1.2375    0.0000 C   0  0  0  0  0  0  0  0  0  0  0  0
    1.4289    0.8250    0.0000 N   0  0  0  0  0  0  0  0  0  0  0  0
    1.4289   -0.0000    0.0000 C   0  0  0  0  0  0  0  0  0  0  0  0
    2.1434   -0.4125    0.0000 O   0  0  0  0  0  0  0  0  0  0  0  0
    0.7145   -0.4125    0.0000 N   0  0  0  0  0  0  0  0  0  0  0  0
   -0.0000   -0.0000    0.0000 C   0  0  0  0  0  0  0  0  0  0  0  0
   -0.7145   -0.4125    0.0000 O   0  0  0  0  0  0  0  0  0  0  0  0
   -0.0000    0.8250    0.0000 N   0  0  0  0  0  0  0  0  0  0  0  0
  1  2  2  0
  2  3  1  0
  3  4  1  0
  4  5  2  0
  4  6  1  0
  6  7  1  0
  7  8  2  0
  7  9  1  0
  2  9  1  0
M  END
>  <id>  (30) 
2823

>  <casrn>  (30) 
108-80-5

>  <smiles (First)>  (30) 


>  <Molecular weight>  (30) 
129.07421875

>  <name>  (30) 
cyanuric acid

>  <Outcome>  (30) 
0

>  <Molecule (RDKit Mol) (InChI Code)>  (30) 
InChI=1S/C3H3N3O3/c7-1-4-2(8)6-3(9)5-1/h(H3,4,5,6,7,8,9)

>  <reference>  (30) 
ECHA

>  <molecule_form>  (30) 
A

>  <ID>  (30) 


>  <SMILES>  (30) 
O=c1[nH]c(=O)[nH]c(=O)[nH]1

>  <ROMol>  (30) 
<rdkit.Chem.rdchem.Mol object at 0x0000027F78E2CD60>

$$$$

     RDKit          2D

  7  6  0  0  0  0  0  0  0  0999 V2000
   -0.1914    0.7145    0.0000 C   0  0  0  0  0  0  0  0  0  0  0  0
    0.5230    1.1270    0.0000 C   0  0  0  0  0  0  0  0  0  0  0  0
    1.2375    0.7145    0.0000 C   0  0  0  0  0  0  0  0  0  0  0  0
    1.9520    1.1270    0.0000 O   0  0  0  0  0  0  0  0  0  0  0  0
    2.6664    0.7145    0.0000 C   0  0  0  0  0  0  0  0  0  0  0  0
    3.3809    1.1270    0.0000 C   0  0  0  0  0  0  0  0  0  0  0  0
    2.6664   -0.1105    0.0000 O   0  0  0  0  0  0  0  0  0  0  0  0
  1  2  1  0
  2  3  1  0
  3  4  1  0
  4  5  1  0
  5  6  1  0
  5  7  2  0
M  END
>  <id>  (31) 
3809

>  <casrn>  (31) 
109-60-4

>  <smiles (First)>  (31) 


>  <Molecular weight>  (31) 
102.13169860839844

>  <name>  (31) 
propyl acetate

>  <Outcome>  (31) 
0

>  <Molecule (RDKit Mol) (InChI Code)>  (31) 
InChI=1S/C5H10O2/c1-3-4-7-5(2)6/h3-4H2,1-2H3

>  <reference>  (31) 
ECHA

>  <molecule_form>  (31) 
V

>  <ID>  (31) 


>  <SMILES>  (31) 
CCCOC(C)=O

>  <ROMol>  (31) 
<rdkit.Chem.rdchem.Mol object at 0x0000027F584AC5F0>

$$$$

     RDKit          2D

 26 25  0  0  0  0  0  0  0  0999 V2000
    8.3862    5.7370    0.0000 C   0  0  0  0  0  0  0  0  0  0  0  0
    9.1007    6.1495    0.0000 C   0  0  0  0  0  0  0  0  0  0  0  0
    9.8151    5.7370    0.0000 C   0  0  0  0  0  0  0  0  0  0  0  0
   10.5296    6.1495    0.0000 C   0  0  0  0  0  0  0  0  0  0  0  0
   11.2441    5.7370    0.0000 C   0  0  0  0  0  0  0  0  0  0  0  0
   11.2441    4.9120    0.0000 C   0  0  0  0  0  0  0  0  0  0  0  0
   11.9585    4.4995    0.0000 C   0  0  0  0  0  0  0  0  0  0  0  0
   11.9585    6.1495    0.0000 C   0  0  0  0  0  0  0  0  0  0  0  0
   12.6730    5.7370    0.0000 O   0  0  0  0  0  0  0  0  0  0  0  0
   13.3875    6.1495    0.0000 C   0  0  0  0  0  0  0  0  0  0  0  0
   13.3875    6.9745    0.0000 O   0  0  0  0  0  0  0  0  0  0  0  0
   14.1020    5.7370    0.0000 C   0  0  0  0  0  0  0  0  0  0  0  0
   14.8164    6.1495    0.0000 C   0  0  0  0  0  0  0  0  0  0  0  0
   15.5309    5.7370    0.0000 C   0  0  0  0  0  0  0  0  0  0  0  0
   16.2454    6.1495    0.0000 C   0  0  0  0  0  0  0  0  0  0  0  0
   16.9598    5.7370    0.0000 C   0  0  0  0  0  0  0  0  0  0  0  0
   16.9598    4.9120    0.0000 O   0  0  0  0  0  0  0  0  0  0  0  0
   17.6743    6.1495    0.0000 O   0  0  0  0  0  0  0  0  0  0  0  0
   18.3888    5.7370    0.0000 C   0  0  0  0  0  0  0  0  0  0  0  0
   19.1033    6.1495    0.0000 C   0  0  0  0  0  0  0  0  0  0  0  0
   19.1033    6.9745    0.0000 C   0  0  0  0  0  0  0  0  0  0  0  0
   19.8177    7.3870    0.0000 C   0  0  0  0  0  0  0  0  0  0  0  0
   19.8177    5.7370    0.0000 C   0  0  0  0  0  0  0  0  0  0  0  0
   20.5322    6.1495    0.0000 C   0  0  0  0  0  0  0  0  0  0  0  0
   21.2467    5.7370    0.0000 C   0  0  0  0  0  0  0  0  0  0  0  0
   21.9611    6.1495    0.0000 C   0  0  0  0  0  0  0  0  0  0  0  0
  1  2  1  0
  2  3  1  0
  3  4  1  0
  4  5  1  0
  5  6  1  0
  6  7  1  0
  5  8  1  0
  8  9  1  0
  9 10  1  0
 10 11  2  0
 10 12  1  0
 12 13  1  0
 13 14  1  0
 14 15  1  0
 15 16  1  0
 16 17  2  0
 16 18  1  0
 18 19  1  0
 19 20  1  0
 20 21  1  0
 21 22  1  0
 20 23  1  0
 23 24  1  0
 24 25  1  0
 25 26  1  0
M  END
>  <id>  (32) 
1075

>  <casrn>  (32) 
103-23-1

>  <smiles (First)>  (32) 


>  <Molecular weight>  (32) 
370.5664978027344

>  <name>  (32) 
1,6-bis(2-ethylhexyl) hexanedioate

>  <Outcome>  (32) 
0

>  <Molecule (RDKit Mol) (InChI Code)>  (32) 
InChI=1S/C22H42O4/c1-5-9-13-19(7-3)17-25-21(23)15-11-12-16-22(24)26-18-20(8-4)14-10-6-2/h19-20H,5-18H2,1-4H3

>  <reference>  (32) 
ECHA

>  <molecule_form>  (32) 
A

>  <ID>  (32) 


>  <SMILES>  (32) 
CCCCC(CC)COC(=O)CCCCC(=O)OCC(CC)CCCC

>  <ROMol>  (32) 
<rdkit.Chem.rdchem.Mol object at 0x0000027F5C1493C0>

$$$$

     RDKit          2D

 15 15  0  0  0  0  0  0  0  0999 V2000
   -2.6133    5.7709    0.0000 C   0  0  0  0  0  0  0  0  0  0  0  0
   -2.6133    4.9459    0.0000 O   0  0  0  0  0  0  0  0  0  0  0  0
   -1.8988    4.5334    0.0000 Si  0  0  0  0  0  4  0  0  0  0  0  0
   -1.1844    4.1209    0.0000 C   0  0  0  0  0  0  0  0  0  0  0  0
   -1.1844    3.2959    0.0000 C   0  0  0  0  0  0  0  0  0  0  0  0
   -0.4699    2.8834    0.0000 C   0  0  0  0  0  0  0  0  0  0  0  0
   -0.4699    2.0584    0.0000 O   0  0  0  0  0  0  0  0  0  0  0  0
    0.2446    1.6459    0.0000 C   0  0  0  0  0  0  0  0  0  0  0  0
    0.2446    0.8209    0.0000 C   0  0  0  0  0  0  0  0  0  0  0  0
    0.6571    0.1064    0.0000 C   0  0  0  0  0  0  0  0  0  0  0  0
   -0.1679    0.1064    0.0000 O   0  0  0  0  0  0  0  0  0  0  0  0
   -2.3113    3.8189    0.0000 O   0  0  0  0  0  0  0  0  0  0  0  0
   -1.8988    3.1045    0.0000 C   0  0  0  0  0  0  0  0  0  0  0  0
   -1.4863    5.2479    0.0000 O   0  0  0  0  0  0  0  0  0  0  0  0
   -0.6613    5.2479    0.0000 C   0  0  0  0  0  0  0  0  0  0  0  0
  1  2  1  0
  2  3  1  0
  3  4  1  0
  4  5  1  0
  5  6  1  0
  6  7  1  0
  7  8  1  0
  8  9  1  0
  9 10  1  0
 10 11  1  0
  9 11  1  0
  3 12  1  0
 12 13  1  0
  3 14  1  0
 14 15  1  0
M  END
>  <id>  (33) 
4091

>  <casrn>  (33) 
2530-83-8

>  <smiles (First)>  (33) 


>  <Molecular weight>  (33) 
236.3376007080078

>  <name>  (33) 
trimethoxy[3-(oxiran-2-ylmethoxy)propyl]silane

>  <Outcome>  (33) 
0

>  <Molecule (RDKit Mol) (InChI Code)>  (33) 
InChI=1S/C9H20O5Si/c1-10-15(11-2,12-3)6-4-5-13-7-9-8-14-9/h9H,4-8H2,1-3H3

>  <reference>  (33) 
ECHA

>  <molecule_form>  (33) 
A

>  <ID>  (33) 


>  <SMILES>  (33) 
CO[Si](CCCOCC1CO1)(OC)OC

>  <ROMol>  (33) 
<rdkit.Chem.rdchem.Mol object at 0x0000027F5842FCF0>

$$$$

     RDKit          2D

 14 16  0  0  0  0  0  0  0  0999 V2000
    2.6269    2.2998    0.0000 C   0  0  0  0  0  0  0  0  0  0  0  0
    1.9124    1.8873    0.0000 C   0  0  0  0  0  0  0  0  0  0  0  0
    1.9124    1.0623    0.0000 O   0  0  0  0  0  0  0  0  0  0  0  0
    1.1979    2.2998    0.0000 O   0  0  0  0  0  0  0  0  0  0  0  0
    0.4834    1.8873    0.0000 C   0  0  0  0  0  0  0  0  0  0  0  0
    0.4834    1.0623    0.0000 C   0  0  0  0  0  0  0  0  0  0  0  0
   -0.2310    0.6498    0.0000 C   0  0  0  0  0  0  0  0  0  0  0  0
   -0.4373    1.4748    0.0000 C   0  0  0  0  0  0  0  0  0  0  0  0
   -0.2310    2.2998    0.0000 C   0  0  0  0  0  0  0  0  0  0  0  0
   -0.9455    1.8873    0.0000 C   0  0  0  0  0  0  0  0  0  0  0  0
   -1.7301    2.1422    0.0000 C   0  0  0  0  0  0  0  0  0  0  0  0
   -2.2150    1.4748    0.0000 C   0  0  0  0  0  0  0  0  0  0  0  0
   -1.7301    0.8073    0.0000 C   0  0  0  0  0  0  0  0  0  0  0  0
   -0.9455    1.0623    0.0000 C   0  0  0  0  0  0  0  0  0  0  0  0
  1  2  1  0
  2  3  2  0
  2  4  1  0
  4  5  1  0
  6  5  1  0
  7  6  1  0
  7  8  1  0
  8  9  1  0
  9 10  1  0
 11 10  1  0
 12 11  1  0
 13 12  2  0
 14 13  1  0
  5  9  1  0
 14  7  1  0
 10 14  1  0
M  END
>  <id>  (34) 
267893

>  <casrn>  (34) 
5413-60-5

>  <smiles (First)>  (34) 
CC(=O)OC1CC2CC1C3CC=CC23

>  <Molecular weight>  (34) 
192.25424194335938

>  <name>  (34) 
3a,4,5,6,7,7a-Hexahydro-1H-4,7-methanoinden-6-yl acetate

>  <Outcome>  (34) 
0

>  <Molecule (RDKit Mol) (InChI Code)>  (34) 
InChI=1S/C12H16O2/c1-7(13)14-12-6-8-5-11(12)10-4-2-3-9(8)10/h2-3,8-12H,4-6H2,1H3

>  <reference>  (34) 
ToxValDB

>  <molecule_form>  (34) 
not specified

>  <ID>  (34) 


>  <SMILES>  (34) 
CC(=O)OC1CC2CC1C1CC=CC21

>  <ROMol>  (34) 
<rdkit.Chem.rdchem.Mol object at 0x0000027F584443C0>

$$$$

     RDKit          2D

  4  3  0  0  0  0  0  0  0  0999 V2000
    1.1408   -0.4088    0.0000 C   0  0  0  0  0  0  0  0  0  0  0  0
    0.3158   -0.4088    0.0000 O   0  0  0  0  0  0  0  0  0  0  0  0
   -0.0967    0.3057    0.0000 C   0  0  0  0  0  0  0  0  0  0  0  0
   -0.9217    0.3057    0.0000 O   0  0  0  0  0  0  0  0  0  0  0  0
  1  2  1  0
  2  3  1  0
  3  4  2  0
M  END
>  <id>  (35) 
202884; 799988

>  <casrn>  (35) 
107-31-3

>  <smiles (First)>  (35) 
COC=O

>  <Molecular weight>  (35) 
60.05195999145508

>  <name>  (35) 
Methyl formate

>  <Outcome>  (35) 
0

>  <Molecule (RDKit Mol) (InChI Code)>  (35) 
InChI=1S/C2H4O2/c1-4-2-3/h2H,1H3

>  <reference>  (35) 
ToxValDB

>  <molecule_form>  (35) 
not specified

>  <ID>  (35) 


>  <SMILES>  (35) 
COC=O

>  <ROMol>  (35) 
<rdkit.Chem.rdchem.Mol object at 0x0000027F58444A50>

$$$$

     RDKit          2D

 15 14  0  0  0  0  0  0  0  0999 V2000
    4.7586    3.5724    0.0000 C   0  0  0  0  0  0  0  0  0  0  0  0
    5.4730    3.9849    0.0000 C   0  0  0  0  0  0  0  0  0  0  0  0
    6.1875    3.5724    0.0000 C   0  0  0  0  0  0  0  0  0  0  0  0
    6.9020    3.9849    0.0000 C   0  0  0  0  0  0  0  0  0  0  0  0
    7.6164    3.5724    0.0000 C   0  0  0  0  0  0  0  0  0  0  0  0
    8.3309    3.9849    0.0000 C   0  0  0  0  0  0  0  0  0  0  0  0
    9.0454    3.5724    0.0000 C   0  0  0  0  0  0  0  0  0  0  0  0
    9.7599    3.9849    0.0000 C   0  0  0  0  0  0  0  0  0  0  0  0
   10.4743    3.5724    0.0000 C   0  0  0  0  0  0  0  0  0  0  0  0
   11.1888    3.9849    0.0000 C   0  0  0  0  0  0  0  0  0  0  0  0
   11.9033    3.5724    0.0000 C   0  0  0  0  0  0  0  0  0  0  0  0
   12.6177    3.9849    0.0000 C   0  0  0  0  0  0  0  0  0  0  0  0
   12.6177    4.8099    0.0000 O   0  0  0  0  0  0  0  0  0  0  0  0
   13.3322    3.5724    0.0000 O   0  0  0  0  0  0  0  0  0  0  0  0
   14.0467    3.9849    0.0000 C   0  0  0  0  0  0  0  0  0  0  0  0
  1  2  1  0
  2  3  1  0
  3  4  1  0
  4  5  1  0
  5  6  1  0
  6  7  1  0
  7  8  1  0
  8  9  1  0
  9 10  1  0
 10 11  1  0
 11 12  1  0
 12 13  2  0
 12 14  1  0
 14 15  1  0
M  END
>  <id>  (36) 
3464

>  <casrn>  (36) 
111-82-0

>  <smiles (First)>  (36) 


>  <Molecular weight>  (36) 
214.34434509277344

>  <name>  (36) 
methyl dodecanoate

>  <Outcome>  (36) 
0

>  <Molecule (RDKit Mol) (InChI Code)>  (36) 
InChI=1S/C13H26O2/c1-3-4-5-6-7-8-9-10-11-12-13(14)15-2/h3-12H2,1-2H3

>  <reference>  (36) 
ECHA

>  <molecule_form>  (36) 
A

>  <ID>  (36) 


>  <SMILES>  (36) 
CCCCCCCCCCCC(=O)OC

>  <ROMol>  (36) 
<rdkit.Chem.rdchem.Mol object at 0x0000027F5C149EB0>

$$$$

     RDKit          2D

  6  5  0  0  0  0  0  0  0  0999 V2000
    2.4750   -1.4289    0.0000 C   0  0  0  0  0  0  0  0  0  0  0  0
    2.0625   -0.7145    0.0000 C   0  0  0  0  0  0  0  0  0  0  0  0
    1.2375   -0.7145    0.0000 C   0  0  0  0  0  0  0  0  0  0  0  0
    0.8250   -1.4289    0.0000 O   0  0  0  0  0  0  0  0  0  0  0  0
    0.8250    0.0000    0.0000 O   0  0  0  0  0  0  0  0  0  0  0  0
    0.0000    0.0000    0.0000 C   0  0  0  0  0  0  0  0  0  0  0  0
  1  2  2  0
  2  3  1  0
  3  4  2  0
  3  5  1  0
  5  6  1  0
M  END
>  <id>  (37) 
3475; 3477; 3469; 3476; 3473; 3478; 3471; 3472

>  <casrn>  (37) 
96-33-3

>  <smiles (First)>  (37) 


>  <Molecular weight>  (37) 
86.08924102783203

>  <name>  (37) 
methyl prop-2-enoate

>  <Outcome>  (37) 
1

>  <Molecule (RDKit Mol) (InChI Code)>  (37) 
InChI=1S/C4H6O2/c1-3-4(5)6-2/h3H,1H2,2H3

>  <reference>  (37) 
ECHA

>  <molecule_form>  (37) 
V

>  <ID>  (37) 


>  <SMILES>  (37) 
C=CC(=O)OC

>  <ROMol>  (37) 
<rdkit.Chem.rdchem.Mol object at 0x0000027F6246B3C0>

$$$$

     RDKit          2D

  6  5  0  0  0  0  0  0  0  0999 V2000
    0.8250    1.4289    0.0000 C   0  0  0  0  0  0  0  0  0  0  0  0
    1.2375    0.7145    0.0000 C   0  0  0  0  0  0  0  0  0  0  0  0
    2.0625    0.7145    0.0000 Cl  0  0  0  0  0  0  0  0  0  0  0  0
    0.8250   -0.0000    0.0000 C   0  0  0  0  0  0  0  0  0  0  0  0
    1.2375   -0.7145    0.0000 C   0  0  0  0  0  0  0  0  0  0  0  0
   -0.0000   -0.0000    0.0000 Cl  0  0  0  0  0  0  0  0  0  0  0  0
  1  2  2  0
  2  3  1  0
  2  4  1  0
  4  5  2  0
  4  6  1  0
M  END
>  <id>  (38) 
1283

>  <casrn>  (38) 
1653-19-6

>  <smiles (First)>  (38) 


>  <Molecular weight>  (38) 
122.98056030273438

>  <name>  (38) 
2,3-dichlorobuta-1,3-diene

>  <Outcome>  (38) 
1

>  <Molecule (RDKit Mol) (InChI Code)>  (38) 
InChI=1S/C4H4Cl2/c1-3(5)4(2)6/h1-2H2

>  <reference>  (38) 
ECHA

>  <molecule_form>  (38) 
G

>  <ID>  (38) 


>  <SMILES>  (38) 
C=C(Cl)C(=C)Cl

>  <ROMol>  (38) 
<rdkit.Chem.rdchem.Mol object at 0x0000027F624B1C80>

$$$$

     RDKit          2D

  6  6  0  0  0  0  0  0  0  0999 V2000
    0.7145    1.2375    0.0000 C   0  0  0  0  0  0  0  0  0  0  0  0
    1.4289    0.8250    0.0000 C   0  0  0  0  0  0  0  0  0  0  0  0
    1.4289   -0.0000    0.0000 C   0  0  0  0  0  0  0  0  0  0  0  0
    0.7145   -0.4125    0.0000 C   0  0  0  0  0  0  0  0  0  0  0  0
    0.0000    0.0000    0.0000 C   0  0  0  0  0  0  0  0  0  0  0  0
    0.0000    0.8250    0.0000 C   0  0  0  0  0  0  0  0  0  0  0  0
  1  2  1  0
  2  3  1  0
  3  4  1  0
  4  5  1  0
  5  6  1  0
  1  6  1  0
M  END
>  <id>  (39) 
2831

>  <casrn>  (39) 
110-82-7

>  <smiles (First)>  (39) 


>  <Molecular weight>  (39) 
84.15948486328125

>  <name>  (39) 
cyclohexane

>  <Outcome>  (39) 
0

>  <Molecule (RDKit Mol) (InChI Code)>  (39) 
InChI=1S/C6H12/c1-2-4-6-5-3-1/h1-6H2

>  <reference>  (39) 
ECHA

>  <molecule_form>  (39) 
V

>  <ID>  (39) 


>  <SMILES>  (39) 
C1CCCCC1

>  <ROMol>  (39) 
<rdkit.Chem.rdchem.Mol object at 0x0000027F78E2C200>

$$$$

     RDKit          2D

 32 34  0  0  0  0  0  0  0  0999 V2000
    2.7852    1.5024    0.0000 C   0  0  0  0  0  0  0  0  0  0  0  0
    2.0707    1.9149    0.0000 C   0  0  0  0  0  0  0  0  0  0  0  0
    2.0707    2.7399    0.0000 C   0  0  0  0  0  0  0  0  0  0  0  0
    1.3562    1.5024    0.0000 C   0  0  0  0  0  0  0  0  0  0  0  0
    0.6418    1.9149    0.0000 C   0  0  0  0  0  0  0  0  0  0  0  0
   -0.0727    1.5024    0.0000 C   0  0  0  0  0  0  0  0  0  0  0  0
   -0.0727    0.6774    0.0000 C   0  0  0  0  0  0  0  0  0  0  0  0
   -0.7872    0.2649    0.0000 O   0  0  0  0  0  0  0  0  0  0  0  0
   -1.5016    0.6774    0.0000 P   0  0  0  0  0  0  0  0  0  0  0  0
   -1.0891    1.3919    0.0000 O   0  0  0  0  0  0  0  0  0  0  0  0
   -2.2161    1.0899    0.0000 O   0  0  0  0  0  0  0  0  0  0  0  0
   -2.2161    1.9149    0.0000 C   0  0  0  0  0  0  0  0  0  0  0  0
   -1.5016    2.3274    0.0000 C   0  0  0  0  0  0  0  0  0  0  0  0
   -1.5016    3.1524    0.0000 C   0  0  0  0  0  0  0  0  0  0  0  0
   -2.2161    3.5649    0.0000 C   0  0  0  0  0  0  0  0  0  0  0  0
   -2.9306    3.1524    0.0000 C   0  0  0  0  0  0  0  0  0  0  0  0
   -2.9306    2.3274    0.0000 C   0  0  0  0  0  0  0  0  0  0  0  0
   -2.2161    4.3899    0.0000 C   0  0  0  0  0  0  0  0  0  0  0  0
   -2.9306    4.8024    0.0000 C   0  0  0  0  0  0  0  0  0  0  0  0
   -1.5016    4.8024    0.0000 C   0  0  0  0  0  0  0  0  0  0  0  0
   -1.9141   -0.0371    0.0000 O   0  0  0  0  0  0  0  0  0  0  0  0
   -2.7391   -0.0371    0.0000 C   0  0  0  0  0  0  0  0  0  0  0  0
   -3.1516    0.6774    0.0000 C   0  0  0  0  0  0  0  0  0  0  0  0
   -3.9766    0.6774    0.0000 C   0  0  0  0  0  0  0  0  0  0  0  0
   -4.3891   -0.0371    0.0000 C   0  0  0  0  0  0  0  0  0  0  0  0
   -3.9766   -0.7515    0.0000 C   0  0  0  0  0  0  0  0  0  0  0  0
   -3.1516   -0.7515    0.0000 C   0  0  0  0  0  0  0  0  0  0  0  0
   -5.2141   -0.0371    0.0000 C   0  0  0  0  0  0  0  0  0  0  0  0
   -5.6266   -0.7515    0.0000 C   0  0  0  0  0  0  0  0  0  0  0  0
   -5.6266    0.6774    0.0000 C   0  0  0  0  0  0  0  0  0  0  0  0
    0.6418    0.2649    0.0000 C   0  0  0  0  0  0  0  0  0  0  0  0
    1.3562    0.6774    0.0000 C   0  0  0  0  0  0  0  0  0  0  0  0
  1  2  1  0
  2  3  1  0
  2  4  1  0
  5  4  2  0
  6  5  1  0
  7  6  2  0
  7  8  1  0
  8  9  1  0
  9 10  2  0
  9 11  1  0
 11 12  1  0
 13 12  2  0
 14 13  1  0
 15 14  2  0
 16 15  1  0
 17 16  2  0
 15 18  1  0
 18 19  1  0
 18 20  1  0
  9 21  1  0
 21 22  1  0
 23 22  2  0
 24 23  1  0
 25 24  2  0
 26 25  1  0
 27 26  2  0
 25 28  1  0
 28 29  1  0
 28 30  1  0
 31  7  1  0
 32 31  2  0
  4 32  1  0
 12 17  1  0
 22 27  1  0
M  END
>  <id>  (40) 
304733

>  <casrn>  (40) 
68937-41-7

>  <smiles (First)>  (40) 
CC(C)c1ccc(O[P](=O)(Oc2ccc(cc2)C(C)C)Oc3ccc(cc3)C(C)C)cc1

>  <Molecular weight>  (40) 
452.52227783203125

>  <name>  (40) 
Triphenyl phosphates isopropylated

>  <Outcome>  (40) 
0

>  <Molecule (RDKit Mol) (InChI Code)>  (40) 
InChI=1S/C27H33O4P/c1-19(2)22-7-13-25(14-8-22)29-32(28,30-26-15-9-23(10-16-26)20(3)4)31-27-17-11-24(12-18-27)21(5)6/h7-21H,1-6H3

>  <reference>  (40) 
ToxValDB

>  <molecule_form>  (40) 
not specified

>  <ID>  (40) 


>  <SMILES>  (40) 
CC(C)c1ccc(OP(=O)(Oc2ccc(C(C)C)cc2)Oc2ccc(C(C)C)cc2)cc1

>  <ROMol>  (40) 
<rdkit.Chem.rdchem.Mol object at 0x0000027F585E3270>

$$$$

     RDKit          2D

  9  9  0  0  0  0  0  0  0  0999 V2000
    2.1829    0.2652    0.0000 Cl  0  0  0  0  0  0  0  0  0  0  0  0
    1.4684    0.6777    0.0000 C   0  0  0  0  0  0  0  0  0  0  0  0
    1.4684    1.5027    0.0000 O   0  0  0  0  0  0  0  0  0  0  0  0
    0.7540    0.2652    0.0000 C   0  0  0  0  0  0  0  0  0  0  0  0
    0.0395    0.6777    0.0000 C   0  0  0  0  0  0  0  0  0  0  0  0
   -0.6750    0.2652    0.0000 C   0  0  0  0  0  0  0  0  0  0  0  0
   -0.6750   -0.5598    0.0000 C   0  0  0  0  0  0  0  0  0  0  0  0
    0.0395   -0.9723    0.0000 C   0  0  0  0  0  0  0  0  0  0  0  0
    0.7540   -0.5598    0.0000 C   0  0  0  0  0  0  0  0  0  0  0  0
  1  2  1  0
  2  3  2  0
  2  4  1  0
  5  4  2  0
  6  5  1  0
  7  6  2  0
  8  7  1  0
  9  8  2  0
  4  9  1  0
M  END
>  <id>  (41) 
798444; 802352

>  <casrn>  (41) 
98-88-4

>  <smiles (First)>  (41) 
ClC(=O)c1ccccc1

>  <Molecular weight>  (41) 
140.56700134277344

>  <name>  (41) 
Benzoyl chloride

>  <Outcome>  (41) 
1

>  <Molecule (RDKit Mol) (InChI Code)>  (41) 
InChI=1S/C7H5ClO/c8-7(9)6-4-2-1-3-5-6/h1-5H

>  <reference>  (41) 
ToxValDB

>  <molecule_form>  (41) 
not specified

>  <ID>  (41) 


>  <SMILES>  (41) 
O=C(Cl)c1ccccc1

>  <ROMol>  (41) 
<rdkit.Chem.rdchem.Mol object at 0x0000027F62462E40>

$$$$

     RDKit          2D

 16 17  0  0  0  0  0  0  0  0999 V2000
    1.5289   -0.0212    0.0000 O   0  0  0  0  0  0  0  0  0  0  0  0
    2.2434   -0.4337    0.0000 C   0  0  0  0  0  0  0  0  0  0  0  0
    2.2434   -1.2587    0.0000 C   0  0  0  0  0  0  0  0  0  0  0  0
    2.9578   -1.6712    0.0000 C   0  0  0  0  0  0  0  0  0  0  0  0
    2.9578   -2.4962    0.0000 C   0  0  0  0  0  0  0  0  0  0  0  0
    2.2434   -2.9087    0.0000 C   0  0  0  0  0  0  0  0  0  0  0  0
    2.2434   -3.7337    0.0000 F   0  0  0  0  0  0  0  0  0  0  0  0
    1.5289   -2.4962    0.0000 C   0  0  0  0  0  0  0  0  0  0  0  0
    1.5289   -1.6712    0.0000 C   0  0  0  0  0  0  0  0  0  0  0  0
    2.9578   -0.0212    0.0000 C   0  0  0  0  0  0  0  0  0  0  0  0
    2.9578    0.8038    0.0000 C   0  0  0  0  0  0  0  0  0  0  0  0
    3.6723    1.2163    0.0000 C   0  0  0  0  0  0  0  0  0  0  0  0
    4.3868    0.8038    0.0000 C   0  0  0  0  0  0  0  0  0  0  0  0
    5.1013    1.2163    0.0000 F   0  0  0  0  0  0  0  0  0  0  0  0
    4.3868   -0.0212    0.0000 C   0  0  0  0  0  0  0  0  0  0  0  0
    3.6723   -0.4337    0.0000 C   0  0  0  0  0  0  0  0  0  0  0  0
  1  2  2  0
  2  3  1  0
  3  4  2  0
  4  5  1  0
  5  6  2  0
  6  7  1  0
  6  8  1  0
  8  9  2  0
  3  9  1  0
  2 10  1  0
 10 11  2  0
 11 12  1  0
 12 13  2  0
 13 14  1  0
 13 15  1  0
 15 16  2  0
 10 16  1  0
M  END
>  <id>  (42) 
2656

>  <casrn>  (42) 
345-92-6

>  <smiles (First)>  (42) 


>  <Molecular weight>  (42) 
218.19883728027344

>  <name>  (42) 
bis(4-fluorophenyl)methanone

>  <Outcome>  (42) 
0

>  <Molecule (RDKit Mol) (InChI Code)>  (42) 
InChI=1S/C13H8F2O/c14-11-5-1-9(2-6-11)13(16)10-3-7-12(15)8-4-10/h1-8H

>  <reference>  (42) 
ECHA

>  <molecule_form>  (42) 
A

>  <ID>  (42) 


>  <SMILES>  (42) 
O=C(c1ccc(F)cc1)c1ccc(F)cc1

>  <ROMol>  (42) 
<rdkit.Chem.rdchem.Mol object at 0x0000027F584087B0>

$$$$

     RDKit          2D

  4  3  0  0  0  0  0  0  0  0999 V2000
    1.2375    0.7145    0.0000 C   0  0  0  0  0  0  0  0  0  0  0  0
    0.8250    0.0000    0.0000 C   0  0  0  0  0  0  0  0  0  0  0  0
    1.2375   -0.7145    0.0000 Cl  0  0  0  0  0  0  0  0  0  0  0  0
   -0.0000    0.0000    0.0000 Cl  0  0  0  0  0  0  0  0  0  0  0  0
  1  2  2  0
  2  3  1  0
  2  4  1  0
M  END
>  <id>  (43) 
892; 891; 894; 893

>  <casrn>  (43) 
75-35-4

>  <smiles (First)>  (43) 


>  <Molecular weight>  (43) 
96.94327545166016

>  <name>  (43) 
1,1-dichloroethene

>  <Outcome>  (43) 
1

>  <Molecule (RDKit Mol) (InChI Code)>  (43) 
InChI=1S/C2H2Cl2/c1-2(3)4/h1H2

>  <reference>  (43) 
ECHA

>  <molecule_form>  (43) 
V

>  <ID>  (43) 


>  <SMILES>  (43) 
C=C(Cl)Cl

>  <ROMol>  (43) 
<rdkit.Chem.rdchem.Mol object at 0x0000027F584DEAC0>

$$$$

     RDKit          2D

  3  2  0  0  0  0  0  0  0  0999 V2000
    2.5936   -0.9862    0.0000 C   0  0  0  0  0  0  0  0  0  0  0  0
    2.1811   -0.2717    0.0000 O   0  0  0  0  0  0  0  0  0  0  0  0
    1.3561   -0.2717    0.0000 C   0  0  0  0  0  0  0  0  0  0  0  0
  1  2  1  0
  2  3  1  0
M  END
>  <id>  (44) 
3441; 3440; 3439

>  <casrn>  (44) 
115-10-6

>  <smiles (First)>  (44) 


>  <Molecular weight>  (44) 
46.06843948364258

>  <name>  (44) 
methoxymethane

>  <Outcome>  (44) 
0

>  <Molecule (RDKit Mol) (InChI Code)>  (44) 
InChI=1S/C2H6O/c1-3-2/h1-2H3

>  <reference>  (44) 
ECHA

>  <molecule_form>  (44) 
G

>  <ID>  (44) 


>  <SMILES>  (44) 
COC

>  <ROMol>  (44) 
<rdkit.Chem.rdchem.Mol object at 0x0000027F58408900>

$$$$

     RDKit          2D

 14 13  0  0  0  0  0  0  0  0999 V2000
    4.7586    3.5724    0.0000 C   0  0  0  0  0  0  0  0  0  0  0  0
    5.4730    3.9849    0.0000 C   0  0  0  0  0  0  0  0  0  0  0  0
    6.1875    3.5724    0.0000 C   0  0  0  0  0  0  0  0  0  0  0  0
    6.9020    3.9849    0.0000 C   0  0  0  0  0  0  0  0  0  0  0  0
    7.6164    3.5724    0.0000 C   0  0  0  0  0  0  0  0  0  0  0  0
    8.3309    3.9849    0.0000 C   0  0  0  0  0  0  0  0  0  0  0  0
    9.0454    3.5724    0.0000 C   0  0  0  0  0  0  0  0  0  0  0  0
    9.7599    3.9849    0.0000 C   0  0  0  0  0  0  0  0  0  0  0  0
   10.4743    3.5724    0.0000 C   0  0  0  0  0  0  0  0  0  0  0  0
   11.1888    3.9849    0.0000 C   0  0  0  0  0  0  0  0  0  0  0  0
   11.9033    3.5724    0.0000 C   0  0  0  0  0  0  0  0  0  0  0  0
   12.6177    3.9849    0.0000 C   0  0  0  0  0  0  0  0  0  0  0  0
   13.3322    3.5724    0.0000 C   0  0  0  0  0  0  0  0  0  0  0  0
   14.0467    3.9849    0.0000 C   0  0  0  0  0  0  0  0  0  0  0  0
  1  2  1  0
  2  3  1  0
  3  4  1  0
  4  5  1  0
  5  6  1  0
  6  7  1  0
  7  8  1  0
  8  9  1  0
  9 10  1  0
 10 11  1  0
 11 12  1  0
 12 13  1  0
 13 14  1  0
M  END
>  <id>  (45) 
3964; 3969; 3968; 3963; 3965

>  <casrn>  (45) 
629-59-4

>  <smiles (First)>  (45) 


>  <Molecular weight>  (45) 
198.38800048828125

>  <name>  (45) 
tetradecane

>  <Outcome>  (45) 
0

>  <Molecule (RDKit Mol) (InChI Code)>  (45) 
InChI=1S/C14H30/c1-3-5-7-9-11-13-14-12-10-8-6-4-2/h3-14H2,1-2H3

>  <reference>  (45) 
ECHA

>  <molecule_form>  (45) 
V; A

>  <ID>  (45) 


>  <SMILES>  (45) 
CCCCCCCCCCCCCC

>  <ROMol>  (45) 
<rdkit.Chem.rdchem.Mol object at 0x0000027F584DE580>

$$$$

     RDKit          2D

  8  7  0  0  0  0  0  0  0  0999 V2000
    1.7605    1.8454    0.0000 C   0  0  0  0  0  0  0  0  0  0  0  0
    2.4750    1.4329    0.0000 C   0  0  0  0  0  0  0  0  0  0  0  0
    3.1895    1.8454    0.0000 O   0  0  0  0  0  0  0  0  0  0  0  0
    3.9039    1.4329    0.0000 C   0  0  0  0  0  0  0  0  0  0  0  0
    3.9039    0.6079    0.0000 O   0  0  0  0  0  0  0  0  0  0  0  0
    4.6184    1.8454    0.0000 O   0  0  0  0  0  0  0  0  0  0  0  0
    5.3329    1.4329    0.0000 C   0  0  0  0  0  0  0  0  0  0  0  0
    6.0474    1.8454    0.0000 C   0  0  0  0  0  0  0  0  0  0  0  0
  1  2  1  0
  2  3  1  0
  3  4  1  0
  4  5  2  0
  4  6  1  0
  6  7  1  0
  7  8  1  0
M  END
>  <id>  (46) 
2965

>  <casrn>  (46) 
105-58-8

>  <smiles (First)>  (46) 


>  <Molecular weight>  (46) 
118.131103515625

>  <name>  (46) 
diethyl carbonate

>  <Outcome>  (46) 
1

>  <Molecule (RDKit Mol) (InChI Code)>  (46) 
InChI=1S/C5H10O3/c1-3-7-5(6)8-4-2/h3-4H2,1-2H3

>  <reference>  (46) 
ECHA

>  <molecule_form>  (46) 
V

>  <ID>  (46) 


>  <SMILES>  (46) 
CCOC(=O)OCC

>  <ROMol>  (46) 
<rdkit.Chem.rdchem.Mol object at 0x0000027F583F4740>

$$$$

     RDKit          2D

  9  8  0  0  0  0  0  0  0  0999 V2000
    1.7093    1.8790    0.0000 C   0  0  0  0  0  0  0  0  0  0  0  0
    2.4238    1.4665    0.0000 C   0  0  0  0  0  0  0  0  0  0  0  0
    3.1383    1.8790    0.0000 C   0  0  0  0  0  0  0  0  0  0  0  0
    3.1383    2.7040    0.0000 O   0  0  0  0  0  0  0  0  0  0  0  0
    3.8528    1.4665    0.0000 O   0  0  0  0  0  0  0  0  0  0  0  0
    4.5672    1.8790    0.0000 C   0  0  0  0  0  0  0  0  0  0  0  0
    5.2817    1.4665    0.0000 C   0  0  0  0  0  0  0  0  0  0  0  0
    5.9962    1.8790    0.0000 C   0  0  0  0  0  0  0  0  0  0  0  0
    5.2817    0.6415    0.0000 C   0  0  0  0  0  0  0  0  0  0  0  0
  1  2  2  0
  2  3  1  0
  3  4  2  0
  3  5  1  0
  5  6  1  0
  6  7  1  0
  7  8  1  0
  7  9  1  0
M  END
>  <id>  (47) 
1675; 1676

>  <casrn>  (47) 
106-63-8

>  <smiles (First)>  (47) 


>  <Molecular weight>  (47) 
128.16897583007812

>  <name>  (47) 
2-methylpropyl prop-2-enoate

>  <Outcome>  (47) 
1

>  <Molecule (RDKit Mol) (InChI Code)>  (47) 
InChI=1S/C7H12O2/c1-4-7(8)9-5-6(2)3/h4,6H,1,5H2,2-3H3

>  <reference>  (47) 
ECHA

>  <molecule_form>  (47) 
V

>  <ID>  (47) 


>  <SMILES>  (47) 
C=CC(=O)OCC(C)C

>  <ROMol>  (47) 
<rdkit.Chem.rdchem.Mol object at 0x0000027F6246BCF0>

$$$$

     RDKit          2D

  7  6  0  0  0  0  0  0  0  0999 V2000
    2.9430   -0.7423    0.0000 C   0  0  0  0  0  0  0  0  0  0  0  0
    2.5305   -0.0279    0.0000 C   0  0  0  0  0  0  0  0  0  0  0  0
    1.7055   -0.0279    0.0000 N   0  0  0  0  0  0  0  0  0  0  0  0
    1.2930    0.6866    0.0000 C   0  0  0  0  0  0  0  0  0  0  0  0
    0.4680    0.6866    0.0000 C   0  0  0  0  0  0  0  0  0  0  0  0
    1.2930   -0.7423    0.0000 C   0  0  0  0  0  0  0  0  0  0  0  0
    0.4680   -0.7423    0.0000 C   0  0  0  0  0  0  0  0  0  0  0  0
  1  2  1  0
  2  3  1  0
  3  4  1  0
  4  5  1  0
  3  6  1  0
  6  7  1  0
M  END
>  <id>  (48) 
217827; 935862

>  <casrn>  (48) 
121-44-8

>  <smiles (First)>  (48) 
CCN(CC)CC

>  <Molecular weight>  (48) 
101.19000244140625

>  <name>  (48) 
Triethylamine

>  <Outcome>  (48) 
1

>  <Molecule (RDKit Mol) (InChI Code)>  (48) 
InChI=1S/C6H15N/c1-4-7(5-2)6-3/h4-6H2,1-3H3

>  <reference>  (48) 
ToxValDB

>  <molecule_form>  (48) 
not specified

>  <ID>  (48) 


>  <SMILES>  (48) 
CCN(CC)CC

>  <ROMol>  (48) 
<rdkit.Chem.rdchem.Mol object at 0x0000027F58905120>

$$$$

     RDKit          2D

 50 51  0  0  0  0  0  0  0  0999 V2000
    3.5657   -6.9861    0.0000 C   0  0  0  0  0  0  0  0  0  0  0  0
    3.5657   -7.8111    0.0000 C   0  0  0  0  0  0  0  0  0  0  0  0
    2.7407   -7.8111    0.0000 C   0  0  0  0  0  0  0  0  0  0  0  0
    4.3907   -7.8111    0.0000 C   0  0  0  0  0  0  0  0  0  0  0  0
    3.5657   -8.6361    0.0000 C   0  0  0  0  0  0  0  0  0  0  0  0
    4.2802   -9.0486    0.0000 C   0  0  0  0  0  0  0  0  0  0  0  0
    4.2802   -9.8736    0.0000 C   0  0  0  0  0  0  0  0  0  0  0  0
    4.9946  -10.2861    0.0000 C   0  0  0  0  0  0  0  0  0  0  0  0
    5.7091   -9.8736    0.0000 C   0  0  0  0  0  0  0  0  0  0  0  0
    6.4236  -10.2861    0.0000 C   0  0  0  0  0  0  0  0  0  0  0  0
    6.4236  -11.1111    0.0000 O   0  0  0  0  0  0  0  0  0  0  0  0
    7.1380   -9.8736    0.0000 O   0  0  0  0  0  0  0  0  0  0  0  0
    7.8525  -10.2861    0.0000 C   0  0  0  0  0  0  0  0  0  0  0  0
    8.5670   -9.8736    0.0000 C   0  0  0  0  0  0  0  0  0  0  0  0
    9.2815  -10.2861    0.0000 N   0  0  0  0  0  0  0  0  0  0  0  0
    9.9959   -9.8736    0.0000 C   0  0  0  0  0  0  0  0  0  0  0  0
    9.9959   -9.0486    0.0000 O   0  0  0  0  0  0  0  0  0  0  0  0
   10.7104  -10.2861    0.0000 C   0  0  0  0  0  0  0  0  0  0  0  0
   10.7104  -11.1111    0.0000 O   0  0  0  0  0  0  0  0  0  0  0  0
   11.4249   -9.8736    0.0000 N   0  0  0  0  0  0  0  0  0  0  0  0
   12.1393  -10.2861    0.0000 C   0  0  0  0  0  0  0  0  0  0  0  0
   12.8538   -9.8736    0.0000 C   0  0  0  0  0  0  0  0  0  0  0  0
   13.5683  -10.2861    0.0000 O   0  0  0  0  0  0  0  0  0  0  0  0
   14.2827   -9.8736    0.0000 C   0  0  0  0  0  0  0  0  0  0  0  0
   14.2827   -9.0486    0.0000 O   0  0  0  0  0  0  0  0  0  0  0  0
   14.9972  -10.2861    0.0000 C   0  0  0  0  0  0  0  0  0  0  0  0
   15.7117   -9.8736    0.0000 C   0  0  0  0  0  0  0  0  0  0  0  0
   16.4262  -10.2861    0.0000 C   0  0  0  0  0  0  0  0  0  0  0  0
   17.1406   -9.8736    0.0000 C   0  0  0  0  0  0  0  0  0  0  0  0
   17.8551  -10.2861    0.0000 C   0  0  0  0  0  0  0  0  0  0  0  0
   18.5696   -9.8736    0.0000 C   0  0  0  0  0  0  0  0  0  0  0  0
   19.2840   -9.4611    0.0000 C   0  0  0  0  0  0  0  0  0  0  0  0
   18.9821  -10.5881    0.0000 C   0  0  0  0  0  0  0  0  0  0  0  0
   18.1571   -9.1591    0.0000 C   0  0  0  0  0  0  0  0  0  0  0  0
   17.8551  -11.1111    0.0000 C   0  0  0  0  0  0  0  0  0  0  0  0
   18.5696  -11.5236    0.0000 O   0  0  0  0  0  0  0  0  0  0  0  0
   17.1406  -11.5236    0.0000 C   0  0  0  0  0  0  0  0  0  0  0  0
   17.1406  -12.3486    0.0000 C   0  0  0  0  0  0  0  0  0  0  0  0
   17.1406  -13.1736    0.0000 C   0  0  0  0  0  0  0  0  0  0  0  0
   16.3156  -12.3486    0.0000 C   0  0  0  0  0  0  0  0  0  0  0  0
   17.9656  -12.3486    0.0000 C   0  0  0  0  0  0  0  0  0  0  0  0
   16.4262  -11.1111    0.0000 C   0  0  0  0  0  0  0  0  0  0  0  0
    3.5657  -10.2861    0.0000 C   0  0  0  0  0  0  0  0  0  0  0  0
    2.8512   -9.8736    0.0000 C   0  0  0  0  0  0  0  0  0  0  0  0
    2.1367  -10.2861    0.0000 C   0  0  0  0  0  0  0  0  0  0  0  0
    1.4223  -10.6986    0.0000 C   0  0  0  0  0  0  0  0  0  0  0  0
    1.7242   -9.5716    0.0000 C   0  0  0  0  0  0  0  0  0  0  0  0
    2.5492  -11.0006    0.0000 C   0  0  0  0  0  0  0  0  0  0  0  0
    2.8512   -9.0486    0.0000 C   0  0  0  0  0  0  0  0  0  0  0  0
    2.1367   -8.6361    0.0000 O   0  0  0  0  0  0  0  0  0  0  0  0
  1  2  1  0
  2  3  1  0
  2  4  1  0
  2  5  1  0
  5  6  2  0
  6  7  1  0
  7  8  1  0
  8  9  1  0
  9 10  1  0
 10 11  2  0
 10 12  1  0
 12 13  1  0
 13 14  1  0
 14 15  1  0
 15 16  1  0
 16 17  2  0
 16 18  1  0
 18 19  2  0
 18 20  1  0
 20 21  1  0
 21 22  1  0
 22 23  1  0
 23 24  1  0
 24 25  2  0
 24 26  1  0
 26 27  1  0
 27 28  1  0
 28 29  2  0
 29 30  1  0
 30 31  1  0
 31 32  1  0
 31 33  1  0
 31 34  1  0
 30 35  2  0
 35 36  1  0
 35 37  1  0
 37 38  1  0
 38 39  1  0
 38 40  1  0
 38 41  1  0
 37 42  2  0
 28 42  1  0
  7 43  2  0
 43 44  1  0
 44 45  1  0
 45 46  1  0
 45 47  1  0
 45 48  1  0
 44 49  2  0
  5 49  1  0
 49 50  1  0
M  END
>  <id>  (49) 
1705

>  <casrn>  (49) 
70331-94-1

>  <smiles (First)>  (49) 


>  <Molecular weight>  (49) 
696.9130249023438

>  <name>  (49) 
2-{[(2-{[3-(3,5-di-tert-butyl-4-hydroxyphenyl)propanoyl]oxy}ethyl)carbamoyl]formamido}ethyl 3-(3,5-di-tert-butyl-4-hydroxyphenyl)propanoate

>  <Outcome>  (49) 
0

>  <Molecule (RDKit Mol) (InChI Code)>  (49) 
InChI=1S/C40H60N2O8/c1-37(2,3)27-21-25(22-28(33(27)45)38(4,5)6)13-15-31(43)49-19-17-41-35(47)36(48)42-18-20-50-32(44)16-14-26-23-29(39(7,8)9)34(46)30(24-26)40(10,11)12/h21-24,45-46H,13-20H2,1-12H3,(H,41,47)(H,42,48)

>  <reference>  (49) 
ECHA

>  <molecule_form>  (49) 
A

>  <ID>  (49) 


>  <SMILES>  (49) 
CC(C)(C)c1cc(CCC(=O)OCCNC(=O)C(=O)NCCOC(=O)CCc2cc(C(C)(C)C)c(O)c(C(C)(C)C)c2)cc(C(C)(C)C)c1O

>  <ROMol>  (49) 
<rdkit.Chem.rdchem.Mol object at 0x0000027F583F4B30>

$$$$

     RDKit          2D

 10 10  0  0  0  0  0  0  0  0999 V2000
    2.2107    0.1614    0.0000 C   0  0  0  0  0  0  0  0  0  0  0  0
    1.4962    0.5739    0.0000 N   0  0  0  0  0  0  0  0  0  0  0  0
    1.4962    1.3989    0.0000 C   0  0  0  0  0  0  0  0  0  0  0  0
    0.7817    0.1614    0.0000 C   0  0  0  0  0  0  0  0  0  0  0  0
    0.0673    0.5739    0.0000 C   0  0  0  0  0  0  0  0  0  0  0  0
   -0.6472    0.1614    0.0000 C   0  0  0  0  0  0  0  0  0  0  0  0
   -0.6472   -0.6636    0.0000 C   0  0  0  0  0  0  0  0  0  0  0  0
   -1.3617   -1.0761    0.0000 C   0  0  0  0  0  0  0  0  0  0  0  0
    0.0673   -1.0761    0.0000 C   0  0  0  0  0  0  0  0  0  0  0  0
    0.7817   -0.6636    0.0000 C   0  0  0  0  0  0  0  0  0  0  0  0
  1  2  1  0
  2  3  1  0
  2  4  1  0
  5  4  2  0
  6  5  1  0
  7  6  2  0
  7  8  1  0
  9  7  1  0
 10  9  2  0
  4 10  1  0
M  END
>  <id>  (50) 
981353

>  <casrn>  (50) 
99-97-8

>  <smiles (First)>  (50) 
CN(C)c1ccc(C)cc1

>  <Molecular weight>  (50) 
135.2062225341797

>  <name>  (50) 
N,N,4-Trimethylaniline

>  <Outcome>  (50) 
1

>  <Molecule (RDKit Mol) (InChI Code)>  (50) 
InChI=1S/C9H13N/c1-8-4-6-9(7-5-8)10(2)3/h4-7H,1-3H3

>  <reference>  (50) 
ToxValDB

>  <molecule_form>  (50) 
not specified

>  <ID>  (50) 


>  <SMILES>  (50) 
Cc1ccc(N(C)C)cc1

>  <ROMol>  (50) 
<rdkit.Chem.rdchem.Mol object at 0x0000027F6244F040>

$$$$

     RDKit          2D

  7  6  0  0  0  0  0  0  0  0999 V2000
   -0.0432    0.0122    0.0000 C   0  0  0  0  0  0  0  0  0  0  0  0
    0.6713    0.4247    0.0000 C   0  0  0  0  0  0  0  0  0  0  0  0
    1.3857    0.0122    0.0000 C   0  0  0  0  0  0  0  0  0  0  0  0
    2.1002    0.4247    0.0000 C   0  0  0  0  0  0  0  0  0  0  0  0
    2.8147    0.0122    0.0000 C   0  0  0  0  0  0  0  0  0  0  0  0
    3.5291    0.4247    0.0000 C   0  0  0  0  0  0  0  0  0  0  0  0
    2.8147   -0.8128    0.0000 C   0  0  0  0  0  0  0  0  0  0  0  0
  1  2  1  0
  2  3  1  0
  3  4  1  0
  4  5  1  0
  5  6  1  0
  5  7  1  0
M  END
>  <id>  (51) 
257188

>  <casrn>  (51) 
31394-54-4

>  <smiles (First)>  (51) 
CCCCC(C)C

>  <Molecular weight>  (51) 
100.20194244384766

>  <name>  (51) 
isoheptane

>  <Outcome>  (51) 
0

>  <Molecule (RDKit Mol) (InChI Code)>  (51) 
InChI=1S/C7H16/c1-4-5-6-7(2)3/h7H,4-6H2,1-3H3

>  <reference>  (51) 
ToxValDB

>  <molecule_form>  (51) 
not specified

>  <ID>  (51) 


>  <SMILES>  (51) 
CCCCC(C)C

>  <ROMol>  (51) 
<rdkit.Chem.rdchem.Mol object at 0x0000027F6244FEB0>

$$$$

     RDKit          2D

 13 12  0  0  0  0  0  0  0  0999 V2000
   -0.0182    0.4247    0.0000 C   0  0  0  0  0  0  0  0  0  0  0  0
    0.6962    0.0122    0.0000 C   0  0  0  0  0  0  0  0  0  0  0  0
    1.4107    0.4247    0.0000 C   0  0  0  0  0  0  0  0  0  0  0  0
    2.1252    0.0122    0.0000 C   0  0  0  0  0  0  0  0  0  0  0  0
    2.8397    0.4247    0.0000 C   0  0  0  0  0  0  0  0  0  0  0  0
    3.5541    0.0122    0.0000 C   0  0  0  0  0  0  0  0  0  0  0  0
    4.2686    0.4247    0.0000 C   0  0  0  0  0  0  0  0  0  0  0  0
    4.9831    0.0122    0.0000 C   0  0  0  0  0  0  0  0  0  0  0  0
    5.6975    0.4247    0.0000 C   0  0  0  0  0  0  0  0  0  0  0  0
    6.4120    0.0122    0.0000 C   0  0  0  0  0  0  0  0  0  0  0  0
    7.1265    0.4247    0.0000 C   0  0  0  0  0  0  0  0  0  0  0  0
    7.8409    0.0122    0.0000 C   0  0  0  0  0  0  0  0  0  0  0  0
    8.5554    0.4247    0.0000 O   0  0  0  0  0  0  0  0  0  0  0  0
  1  2  1  0
  2  3  1  0
  3  4  1  0
  4  5  1  0
  5  6  1  0
  6  7  1  0
  7  8  1  0
  8  9  1  0
  9 10  1  0
 10 11  1  0
 11 12  1  0
 12 13  1  0
M  END
>  <id>  (52) 
210897

>  <casrn>  (52) 
112-53-8

>  <smiles (First)>  (52) 
CCCCCCCCCCCCO

>  <Molecular weight>  (52) 
186.33424377441406

>  <name>  (52) 
1-Dodecanol

>  <Outcome>  (52) 
0

>  <Molecule (RDKit Mol) (InChI Code)>  (52) 
InChI=1S/C12H26O/c1-2-3-4-5-6-7-8-9-10-11-12-13/h13H,2-12H2,1H3

>  <reference>  (52) 
ToxValDB

>  <molecule_form>  (52) 
not specified

>  <ID>  (52) 


>  <SMILES>  (52) 
CCCCCCCCCCCCO

>  <ROMol>  (52) 
<rdkit.Chem.rdchem.Mol object at 0x0000027F5BB49C80>

$$$$

     RDKit          2D

  9  8  0  0  0  0  0  0  0  0999 V2000
    1.0461    1.4305    0.0000 C   0  0  0  0  0  0  0  0  0  0  0  0
    1.7605    1.8430    0.0000 C   0  0  0  0  0  0  0  0  0  0  0  0
    2.4750    1.4305    0.0000 C   0  0  0  0  0  0  0  0  0  0  0  0
    2.4750    0.6055    0.0000 O   0  0  0  0  0  0  0  0  0  0  0  0
    3.1895    1.8430    0.0000 O   0  0  0  0  0  0  0  0  0  0  0  0
    3.9039    1.4305    0.0000 C   0  0  0  0  0  0  0  0  0  0  0  0
    4.6184    1.8430    0.0000 C   0  0  0  0  0  0  0  0  0  0  0  0
    5.3329    1.4305    0.0000 C   0  0  0  0  0  0  0  0  0  0  0  0
    6.0474    1.8430    0.0000 C   0  0  0  0  0  0  0  0  0  0  0  0
  1  2  2  0
  2  3  1  0
  3  4  2  0
  3  5  1  0
  5  6  1  0
  6  7  1  0
  7  8  1  0
  8  9  1  0
M  END
>  <id>  (53) 
2729; 2719; 2724; 2726; 2727; 2728; 2722; 2723

>  <casrn>  (53) 
141-32-2

>  <smiles (First)>  (53) 


>  <Molecular weight>  (53) 
128.16897583007812

>  <name>  (53) 
butyl prop-2-enoate

>  <Outcome>  (53) 
1

>  <Molecule (RDKit Mol) (InChI Code)>  (53) 
InChI=1S/C7H12O2/c1-3-5-6-9-7(8)4-2/h4H,2-3,5-6H2,1H3

>  <reference>  (53) 
ECHA

>  <molecule_form>  (53) 
V

>  <ID>  (53) 


>  <SMILES>  (53) 
C=CC(=O)OCCCC

>  <ROMol>  (53) 
<rdkit.Chem.rdchem.Mol object at 0x0000027F6246BC10>

$$$$

     RDKit          2D

 15 14  0  0  0  0  0  0  0  0999 V2000
   -0.1766    0.7643    0.0000 C   0  0  0  0  0  0  0  0  0  0  0  0
    0.5378    1.1768    0.0000 C   0  0  0  0  0  0  0  0  0  0  0  0
    0.5378    2.0018    0.0000 C   0  0  0  0  0  0  0  0  0  0  0  0
    1.2523    0.7643    0.0000 O   0  0  0  0  0  0  0  0  0  0  0  0
    1.9668    1.1768    0.0000 C   0  0  0  0  0  0  0  0  0  0  0  0
    1.9668    2.0018    0.0000 O   0  0  0  0  0  0  0  0  0  0  0  0
    2.6812    0.7643    0.0000 C   0  0  0  0  0  0  0  0  0  0  0  0
    2.6812   -0.0607    0.0000 C   0  0  0  0  0  0  0  0  0  0  0  0
    3.3957    1.1768    0.0000 O   0  0  0  0  0  0  0  0  0  0  0  0
    4.1102    0.7643    0.0000 C   0  0  0  0  0  0  0  0  0  0  0  0
    4.1102   -0.0607    0.0000 O   0  0  0  0  0  0  0  0  0  0  0  0
    4.8247    1.1768    0.0000 C   0  0  0  0  0  0  0  0  0  0  0  0
    5.5391    1.5893    0.0000 C   0  0  0  0  0  0  0  0  0  0  0  0
    5.2372    0.4624    0.0000 C   0  0  0  0  0  0  0  0  0  0  0  0
    4.4122    1.8913    0.0000 C   0  0  0  0  0  0  0  0  0  0  0  0
  1  2  1  0
  2  3  1  0
  2  4  1  0
  4  5  1  0
  5  6  2  0
  5  7  1  0
  7  8  1  0
  7  9  1  0
  9 10  1  0
 10 11  2  0
 10 12  1  0
 12 13  1  0
 12 14  1  0
 12 15  1  0
M  END
>  <id>  (54) 
4179

>  <casrn>  (54) 
1584709-99-8

>  <smiles (First)>  (54) 


>  <Molecular weight>  (54) 
216.27410888671875

>  <name>  (54) 
unnamed [1584709-99-8]

>  <Outcome>  (54) 
0

>  <Molecule (RDKit Mol) (InChI Code)>  (54) 
InChI=1S/C11H20O4/c1-7(2)14-9(12)8(3)15-10(13)11(4,5)6/h7-8H,1-6H3

>  <reference>  (54) 
ECHA

>  <molecule_form>  (54) 
A

>  <ID>  (54) 


>  <SMILES>  (54) 
CC(C)OC(=O)C(C)OC(=O)C(C)(C)C

>  <ROMol>  (54) 
<rdkit.Chem.rdchem.Mol object at 0x0000027F58419740>

$$$$

     RDKit          2D

 18 17  0  0  0  0  0  0  0  0999 V2000
    1.2375   -0.7145    0.0000 F   0  0  0  0  0  0  0  0  0  0  0  0
    0.8250    0.0000    0.0000 C   0  0  0  0  0  0  0  0  0  0  0  0
   -0.0000    0.0000    0.0000 C   0  0  0  0  0  0  0  0  0  0  0  0
   -0.4125    0.7145    0.0000 F   0  0  0  0  0  0  0  0  0  0  0  0
   -0.4125   -0.7145    0.0000 C   0  0  0  0  0  0  0  0  0  0  0  0
    0.3020   -1.1270    0.0000 F   0  0  0  0  0  0  0  0  0  0  0  0
   -1.1270   -0.3020    0.0000 C   0  0  0  0  0  0  0  0  0  0  0  0
   -1.8414    0.1105    0.0000 F   0  0  0  0  0  0  0  0  0  0  0  0
   -1.5395   -1.0164    0.0000 F   0  0  0  0  0  0  0  0  0  0  0  0
   -0.7145    0.4125    0.0000 F   0  0  0  0  0  0  0  0  0  0  0  0
   -0.8250   -1.4289    0.0000 C   0  0  0  0  0  0  0  0  0  0  0  0
   -1.2375   -2.1434    0.0000 F   0  0  0  0  0  0  0  0  0  0  0  0
   -1.6455   -1.5152    0.0000 F   0  0  0  0  0  0  0  0  0  0  0  0
   -0.1105   -1.8414    0.0000 F   0  0  0  0  0  0  0  0  0  0  0  0
    1.2375    0.7145    0.0000 C   0  0  0  0  0  0  0  0  0  0  0  0
    1.6500    1.4289    0.0000 F   0  0  0  0  0  0  0  0  0  0  0  0
    1.9520    0.3020    0.0000 F   0  0  0  0  0  0  0  0  0  0  0  0
    0.5230    1.1270    0.0000 F   0  0  0  0  0  0  0  0  0  0  0  0
  2  1  1  0
  2  3  2  3
  3  4  1  0
  3  5  1  0
  5  6  1  0
  5  7  1  0
  7  8  1  0
  7  9  1  0
  7 10  1  0
  5 11  1  0
 11 12  1  0
 11 13  1  0
 11 14  1  0
  2 15  1  0
 15 16  1  0
 15 17  1  0
 15 18  1  0
M  END
>  <id>  (55) 
4195

>  <casrn>  (55) 
3709-71-5

>  <smiles (First)>  (55) 


>  <Molecular weight>  (55) 
300.0450439453125

>  <name>  (55) 
unnamed [3709-71-5]

>  <Outcome>  (55) 
0

>  <Molecule (RDKit Mol) (InChI Code)>  (55) 
InChI=1S/C6F12/c7-1(2(8)4(10,11)12)3(9,5(13,14)15)6(16,17)18

>  <reference>  (55) 
ECHA

>  <molecule_form>  (55) 
V

>  <ID>  (55) 


>  <SMILES>  (55) 
FC(=C(F)C(F)(C(F)(F)F)C(F)(F)F)C(F)(F)F

>  <ROMol>  (55) 
<rdkit.Chem.rdchem.Mol object at 0x0000027F5C149DD0>

$$$$

     RDKit          2D

 12 11  0  0  0  0  0  0  0  0999 V2000
   -0.0001    0.0000    0.0000 C   0  0  0  0  0  0  0  0  0  0  0  0
    0.7143    0.4125    0.0000 C   0  0  0  0  0  0  0  0  0  0  0  0
    1.4288    0.0000    0.0000 C   0  0  0  0  0  0  0  0  0  0  0  0
    2.1433    0.4125    0.0000 C   0  0  0  0  0  0  0  0  0  0  0  0
    2.8577    0.0000    0.0000 C   0  0  0  0  0  0  0  0  0  0  0  0
    3.5722    0.4125    0.0000 C   0  0  0  0  0  0  0  0  0  0  0  0
    4.2867    0.0000    0.0000 C   0  0  0  0  0  0  0  0  0  0  0  0
    5.0012    0.4125    0.0000 C   0  0  0  0  0  0  0  0  0  0  0  0
    5.7156    0.0000    0.0000 C   0  0  0  0  0  0  0  0  0  0  0  0
    6.4301    0.4125    0.0000 C   0  0  0  0  0  0  0  0  0  0  0  0
    7.1446    0.0000    0.0000 C   0  0  0  0  0  0  0  0  0  0  0  0
    7.8590    0.4125    0.0000 O   0  0  0  0  0  0  0  0  0  0  0  0
  1  2  1  0
  2  3  1  0
  3  4  1  0
  4  5  1  0
  5  6  1  0
  6  7  1  0
  7  8  1  0
  8  9  1  0
  9 10  1  0
 10 11  1  0
 11 12  1  0
M  END
>  <id>  (56) 
210776

>  <casrn>  (56) 
112-42-5

>  <smiles (First)>  (56) 
CCCCCCCCCCCO

>  <Molecular weight>  (56) 
172.3076629638672

>  <name>  (56) 
1-Undecanol

>  <Outcome>  (56) 
0

>  <Molecule (RDKit Mol) (InChI Code)>  (56) 
InChI=1S/C11H24O/c1-2-3-4-5-6-7-8-9-10-11-12/h12H,2-11H2,1H3

>  <reference>  (56) 
ToxValDB

>  <molecule_form>  (56) 
not specified

>  <ID>  (56) 


>  <SMILES>  (56) 
CCCCCCCCCCCO

>  <ROMol>  (56) 
<rdkit.Chem.rdchem.Mol object at 0x0000027F585CB580>

$$$$

     RDKit          2D

 10  9  0  0  0  0  0  0  0  0999 V2000
    2.7288   -1.6613    0.0000 C   0  0  0  0  0  0  0  0  0  0  0  0
    2.7288   -0.8363    0.0000 C   0  0  0  0  0  0  0  0  0  0  0  0
    2.0143   -0.4238    0.0000 O   0  0  0  0  0  0  0  0  0  0  0  0
    2.0143    0.4012    0.0000 P   0  0  0  0  0  0  0  0  0  0  0  0
    1.2999    0.8137    0.0000 O   0  0  0  0  0  0  0  0  0  0  0  0
    1.2999    1.6387    0.0000 C   0  0  0  0  0  0  0  0  0  0  0  0
    0.5854    2.0512    0.0000 C   0  0  0  0  0  0  0  0  0  0  0  0
    2.7288    0.8137    0.0000 O   0  0  0  0  0  0  0  0  0  0  0  0
    2.7288    1.6387    0.0000 C   0  0  0  0  0  0  0  0  0  0  0  0
    3.4433    2.0512    0.0000 C   0  0  0  0  0  0  0  0  0  0  0  0
  1  2  1  0
  2  3  1  0
  3  4  1  0
  4  5  1  0
  5  6  1  0
  6  7  1  0
  4  8  1  0
  8  9  1  0
  9 10  1  0
M  END
>  <id>  (57) 
219337; 219351

>  <casrn>  (57) 
122-52-1

>  <smiles (First)>  (57) 
CCOP(OCC)OCC

>  <Molecular weight>  (57) 
166.15525817871094

>  <name>  (57) 
Triethyl phosphite

>  <Outcome>  (57) 
1

>  <Molecule (RDKit Mol) (InChI Code)>  (57) 
InChI=1S/C6H15O3P/c1-4-7-10(8-5-2)9-6-3/h4-6H2,1-3H3

>  <reference>  (57) 
ToxValDB

>  <molecule_form>  (57) 
not specified

>  <ID>  (57) 


>  <SMILES>  (57) 
CCOP(OCC)OCC

>  <ROMol>  (57) 
<rdkit.Chem.rdchem.Mol object at 0x0000027F585E3350>

$$$$

     RDKit          2D

 14 14  0  0  0  0  0  0  0  0999 V2000
   -0.7145    2.8875    0.0000 O   0  0  0  0  0  0  0  0  0  0  0  0
   -0.0000    2.4750    0.0000 C   0  0  0  0  0  0  0  0  0  0  0  0
    0.7145    2.0625    0.0000 N   0  0  0  0  0  0  0  0  0  0  0  0
    0.7145    1.2375    0.0000 C   0  0  0  0  0  0  0  0  0  0  0  0
    1.4289    0.8250    0.0000 C   0  0  0  0  0  0  0  0  0  0  0  0
    1.4289   -0.0000    0.0000 C   0  0  0  0  0  0  0  0  0  0  0  0
    0.7145   -0.4125    0.0000 C   0  0  0  0  0  0  0  0  0  0  0  0
    0.7145   -1.2375    0.0000 O   0  0  0  0  0  0  0  0  0  0  0  0
    1.4289   -1.6500    0.0000 C   0  0  0  0  0  0  0  0  0  0  0  0
    2.1434   -2.0625    0.0000 F   0  0  0  0  0  0  0  0  0  0  0  0
    1.0164   -2.3645    0.0000 F   0  0  0  0  0  0  0  0  0  0  0  0
    1.8414   -0.9355    0.0000 F   0  0  0  0  0  0  0  0  0  0  0  0
   -0.0000    0.0000    0.0000 C   0  0  0  0  0  0  0  0  0  0  0  0
   -0.0000    0.8250    0.0000 C   0  0  0  0  0  0  0  0  0  0  0  0
  1  2  2  0
  2  3  2  0
  3  4  1  0
  4  5  2  0
  5  6  1  0
  6  7  2  0
  7  8  1  0
  8  9  1  0
  9 10  1  0
  9 11  1  0
  9 12  1  0
  7 13  1  0
 13 14  2  0
  4 14  1  0
M  END
>  <id>  (58) 
1174

>  <casrn>  (58) 
35037-73-1

>  <smiles (First)>  (58) 


>  <Molecular weight>  (58) 
203.11807250976562

>  <name>  (58) 
1-isocyanato-4-(trifluoromethoxy)benzene

>  <Outcome>  (58) 
1

>  <Molecule (RDKit Mol) (InChI Code)>  (58) 
InChI=1S/C8H4F3NO2/c9-8(10,11)14-7-3-1-6(2-4-7)12-5-13/h1-4H

>  <reference>  (58) 
ECHA

>  <molecule_form>  (58) 
V

>  <ID>  (58) 


>  <SMILES>  (58) 
O=C=Nc1ccc(OC(F)(F)F)cc1

>  <ROMol>  (58) 
<rdkit.Chem.rdchem.Mol object at 0x0000027F58408C10>

$$$$

     RDKit          2D

 14 13  0  0  0  0  0  0  0  0999 V2000
   -3.0342    0.6534    0.0000 C   0  0  0  0  0  0  0  0  0  0  0  0
   -2.3197    0.2409    0.0000 O   0  0  0  0  0  0  0  0  0  0  0  0
   -1.6052    0.6534    0.0000 Si  0  0  0  0  0  4  0  0  0  0  0  0
   -0.8908    1.0659    0.0000 C   0  0  0  0  0  0  0  0  0  0  0  0
   -0.1763    0.6534    0.0000 C   0  0  0  0  0  0  0  0  0  0  0  0
    0.5382    1.0659    0.0000 C   0  0  0  0  0  0  0  0  0  0  0  0
    1.2526    0.6534    0.0000 N   0  0  0  0  0  0  0  0  0  0  0  0
    1.9671    1.0659    0.0000 C   0  0  0  0  0  0  0  0  0  0  0  0
    2.6816    0.6534    0.0000 C   0  0  0  0  0  0  0  0  0  0  0  0
    3.3961    1.0659    0.0000 N   0  0  0  0  0  0  0  0  0  0  0  0
   -1.1927   -0.0611    0.0000 O   0  0  0  0  0  0  0  0  0  0  0  0
   -0.3677   -0.0611    0.0000 C   0  0  0  0  0  0  0  0  0  0  0  0
   -2.0177    1.3678    0.0000 O   0  0  0  0  0  0  0  0  0  0  0  0
   -1.6052    2.0823    0.0000 C   0  0  0  0  0  0  0  0  0  0  0  0
  1  2  1  0
  2  3  1  0
  3  4  1  0
  4  5  1  0
  5  6  1  0
  6  7  1  0
  7  8  1  0
  8  9  1  0
  9 10  1  0
  3 11  1  0
 11 12  1  0
  3 13  1  0
 13 14  1  0
M  END
>  <id>  (59) 
157

>  <casrn>  (59) 
1760-24-3

>  <smiles (First)>  (59) 


>  <Molecular weight>  (59) 
222.3573760986328

>  <name>  (59) 
(2-aminoethyl)[3-(trimethoxysilyl)propyl]amine

>  <Outcome>  (59) 
1

>  <Molecule (RDKit Mol) (InChI Code)>  (59) 
InChI=1S/C8H22N2O3Si/c1-11-14(12-2,13-3)8-4-6-10-7-5-9/h10H,4-9H2,1-3H3

>  <reference>  (59) 
ECHA

>  <molecule_form>  (59) 
A

>  <ID>  (59) 


>  <SMILES>  (59) 
CO[Si](CCCNCCN)(OC)OC

>  <ROMol>  (59) 
<rdkit.Chem.rdchem.Mol object at 0x0000027F583F4F20>

$$$$

     RDKit          2D

  4  3  0  0  0  0  0  0  0  0999 V2000
    2.0625   -0.7145    0.0000 C   0  0  0  0  0  0  0  0  0  0  0  0
    1.2375   -0.7145    0.0000 C   0  0  0  0  0  0  0  0  0  0  0  0
    0.8250   -0.0000    0.0000 C   0  0  0  0  0  0  0  0  0  0  0  0
    0.0000   -0.0000    0.0000 O   0  0  0  0  0  0  0  0  0  0  0  0
  1  2  2  0
  2  3  1  0
  3  4  2  0
M  END
>  <id>  (60) 
3774; 3772; 3773

>  <casrn>  (60) 
107-02-8

>  <smiles (First)>  (60) 


>  <Molecular weight>  (60) 
56.06326293945312

>  <name>  (60) 
prop-2-enal

>  <Outcome>  (60) 
1

>  <Molecule (RDKit Mol) (InChI Code)>  (60) 
InChI=1S/C3H4O/c1-2-3-4/h2-3H,1H2

>  <reference>  (60) 
ECHA

>  <molecule_form>  (60) 
V

>  <ID>  (60) 


>  <SMILES>  (60) 
C=CC=O

>  <ROMol>  (60) 
<rdkit.Chem.rdchem.Mol object at 0x0000027F5843A660>

$$$$

     RDKit          2D

  9  9  0  0  0  0  0  0  0  0999 V2000
    0.7145    2.0625    0.0000 Cl  0  0  0  0  0  0  0  0  0  0  0  0
    0.7145    1.2375    0.0000 C   0  0  0  0  0  0  0  0  0  0  0  0
    1.4289    0.8250    0.0000 N   0  0  0  0  0  0  0  0  0  0  0  0
    1.4289   -0.0000    0.0000 C   0  0  0  0  0  0  0  0  0  0  0  0
    2.1434   -0.4125    0.0000 Cl  0  0  0  0  0  0  0  0  0  0  0  0
    0.7145   -0.4125    0.0000 N   0  0  0  0  0  0  0  0  0  0  0  0
   -0.0000    0.0000    0.0000 C   0  0  0  0  0  0  0  0  0  0  0  0
   -0.7145   -0.4125    0.0000 Cl  0  0  0  0  0  0  0  0  0  0  0  0
   -0.0000    0.8250    0.0000 N   0  0  0  0  0  0  0  0  0  0  0  0
  1  2  1  0
  2  3  2  0
  3  4  1  0
  4  5  1  0
  4  6  2  0
  6  7  1  0
  7  8  1  0
  7  9  2  0
  2  9  1  0
M  END
>  <id>  (61) 
4031

>  <casrn>  (61) 
108-77-0

>  <smiles (First)>  (61) 


>  <Molecular weight>  (61) 
184.41119384765625

>  <name>  (61) 
trichloro-1,3,5-triazine

>  <Outcome>  (61) 
1

>  <Molecule (RDKit Mol) (InChI Code)>  (61) 
InChI=1S/C3Cl3N3/c4-1-7-2(5)9-3(6)8-1

>  <reference>  (61) 
ECHA

>  <molecule_form>  (61) 
A

>  <ID>  (61) 


>  <SMILES>  (61) 
Clc1nc(Cl)nc(Cl)n1

>  <ROMol>  (61) 
<rdkit.Chem.rdchem.Mol object at 0x0000027F624B1660>

$$$$

     RDKit          2D

  6  5  0  0  0  0  0  0  0  0999 V2000
    1.2107    2.1392    0.0000 C   0  0  0  0  0  0  0  0  0  0  0  0
    0.7982    1.4247    0.0000 C   0  0  0  0  0  0  0  0  0  0  0  0
    1.2107    0.7102    0.0000 C   0  0  0  0  0  0  0  0  0  0  0  0
    0.7982   -0.0043    0.0000 N   0  0  0  0  0  0  0  0  0  0  0  0
    1.2107   -0.7187    0.0000 C   0  0  0  0  0  0  0  0  0  0  0  0
   -0.0268   -0.0043    0.0000 C   0  0  0  0  0  0  0  0  0  0  0  0
  1  2  1  0
  2  3  1  0
  3  4  1  0
  4  5  1  0
  4  6  1  0
M  END
>  <id>  (62) 
3003

>  <casrn>  (62) 
926-63-6

>  <smiles (First)>  (62) 


>  <Molecular weight>  (62) 
87.16342163085938

>  <name>  (62) 
dimethyl(propyl)amine

>  <Outcome>  (62) 
1

>  <Molecule (RDKit Mol) (InChI Code)>  (62) 
InChI=1S/C5H13N/c1-4-5-6(2)3/h4-5H2,1-3H3

>  <reference>  (62) 
ECHA

>  <molecule_form>  (62) 
V

>  <ID>  (62) 


>  <SMILES>  (62) 
CCCN(C)C

>  <ROMol>  (62) 
<rdkit.Chem.rdchem.Mol object at 0x0000027F584AC2E0>

$$$$

     RDKit          2D

 10 10  0  0  0  0  0  0  0  0999 V2000
   -0.0000    2.4750    0.0000 C   0  0  0  0  0  0  0  0  0  0  0  0
    0.7145    2.0625    0.0000 C   0  0  0  0  0  0  0  0  0  0  0  0
    0.7145    1.2375    0.0000 C   0  0  0  0  0  0  0  0  0  0  0  0
    1.4289    0.8250    0.0000 C   0  0  0  0  0  0  0  0  0  0  0  0
    1.4289   -0.0000    0.0000 C   0  0  0  0  0  0  0  0  0  0  0  0
    0.7145   -0.4125    0.0000 C   0  0  0  0  0  0  0  0  0  0  0  0
    0.7145   -1.2375    0.0000 C   0  0  0  0  0  0  0  0  0  0  0  0
    1.4289   -1.6500    0.0000 C   0  0  0  0  0  0  0  0  0  0  0  0
   -0.0000   -0.0000    0.0000 C   0  0  0  0  0  0  0  0  0  0  0  0
   -0.0000    0.8250    0.0000 C   0  0  0  0  0  0  0  0  0  0  0  0
  1  2  1  0
  2  3  1  0
  3  4  2  0
  4  5  1  0
  5  6  2  0
  6  7  1  0
  7  8  1  0
  6  9  1  0
  9 10  2  0
  3 10  1  0
M  END
>  <id>  (63) 
1059

>  <casrn>  (63) 
105-05-5

>  <smiles (First)>  (63) 


>  <Molecular weight>  (63) 
134.21817016601562

>  <name>  (63) 
1,4-diethylbenzene

>  <Outcome>  (63) 
0

>  <Molecule (RDKit Mol) (InChI Code)>  (63) 
InChI=1S/C10H14/c1-3-9-5-7-10(4-2)8-6-9/h5-8H,3-4H2,1-2H3

>  <reference>  (63) 
ECHA

>  <molecule_form>  (63) 
A

>  <ID>  (63) 


>  <SMILES>  (63) 
CCc1ccc(CC)cc1

>  <ROMol>  (63) 
<rdkit.Chem.rdchem.Mol object at 0x0000027F584375F0>

$$$$

     RDKit          2D

 12 11  0  0  0  0  0  0  0  0999 V2000
   -1.4191   -2.8293    0.0000 C   0  0  0  0  0  0  0  0  0  0  0  0
   -0.7046   -2.4168    0.0000 C   0  0  0  0  0  0  0  0  0  0  0  0
   -0.2921   -3.1313    0.0000 C   0  0  0  0  0  0  0  0  0  0  0  0
   -1.1171   -1.7024    0.0000 C   0  0  0  0  0  0  0  0  0  0  0  0
    0.0098   -2.0043    0.0000 O   0  0  0  0  0  0  0  0  0  0  0  0
    0.0098   -1.1793    0.0000 O   0  0  0  0  0  0  0  0  0  0  0  0
    0.7243   -0.7668    0.0000 C   0  0  0  0  0  0  0  0  0  0  0  0
    1.4388   -1.1793    0.0000 O   0  0  0  0  0  0  0  0  0  0  0  0
    0.7243    0.0582    0.0000 C   0  0  0  0  0  0  0  0  0  0  0  0
    0.7243    0.8832    0.0000 C   0  0  0  0  0  0  0  0  0  0  0  0
    1.5493    0.0582    0.0000 C   0  0  0  0  0  0  0  0  0  0  0  0
   -0.1007    0.0582    0.0000 C   0  0  0  0  0  0  0  0  0  0  0  0
  1  2  1  0
  2  3  1  0
  2  4  1  0
  2  5  1  0
  5  6  1  0
  6  7  1  0
  7  8  2  0
  7  9  1  0
  9 10  1  0
  9 11  1  0
  9 12  1  0
M  END
>  <id>  (64) 
3910

>  <casrn>  (64) 
927-07-1

>  <smiles (First)>  (64) 


>  <Molecular weight>  (64) 
174.2374267578125

>  <name>  (64) 
tert-butyl 2,2-dimethylpropaneperoxoate

>  <Outcome>  (64) 
0

>  <Molecule (RDKit Mol) (InChI Code)>  (64) 
InChI=1S/C9H18O3/c1-8(2,3)7(10)11-12-9(4,5)6/h1-6H3

>  <reference>  (64) 
ECHA

>  <molecule_form>  (64) 
A

>  <ID>  (64) 


>  <SMILES>  (64) 
CC(C)(C)OOC(=O)C(C)(C)C

>  <ROMol>  (64) 
<rdkit.Chem.rdchem.Mol object at 0x0000027F583F4890>

$$$$

     RDKit          2D

  8  7  0  0  0  0  0  0  0  0999 V2000
    1.1974    0.8515    0.0000 C   0  0  0  0  0  0  0  0  0  0  0  0
    1.1974    0.0265    0.0000 C   0  0  0  0  0  0  0  0  0  0  0  0
    1.1974   -0.7985    0.0000 C   0  0  0  0  0  0  0  0  0  0  0  0
    1.9119   -1.2110    0.0000 N   0  0  0  0  0  0  0  0  0  0  0  0
    1.9119   -2.0360    0.0000 C   0  0  0  0  0  0  0  0  0  0  0  0
    2.6263   -2.4485    0.0000 C   0  0  0  0  0  0  0  0  0  0  0  0
    2.6263   -0.7985    0.0000 C   0  0  0  0  0  0  0  0  0  0  0  0
    3.3408   -1.2110    0.0000 C   0  0  0  0  0  0  0  0  0  0  0  0
  1  2  3  0
  2  3  1  0
  3  4  1  0
  4  5  1  0
  5  6  1  0
  4  7  1  0
  7  8  1  0
M  END
>  <id>  (65) 
2968

>  <casrn>  (65) 
4079-68-9

>  <smiles (First)>  (65) 


>  <Molecular weight>  (65) 
111.18482208251953

>  <name>  (65) 
diethyl(prop-2-yn-1-yl)amine

>  <Outcome>  (65) 
1

>  <Molecule (RDKit Mol) (InChI Code)>  (65) 
InChI=1S/C7H13N/c1-4-7-8(5-2)6-3/h1H,5-7H2,2-3H3

>  <reference>  (65) 
ECHA

>  <molecule_form>  (65) 
V

>  <ID>  (65) 


>  <SMILES>  (65) 
C#CCN(CC)CC

>  <ROMol>  (65) 
<rdkit.Chem.rdchem.Mol object at 0x0000027F58419BA0>

$$$$

     RDKit          2D

  9  9  0  0  0  0  0  0  0  0999 V2000
   -0.0020    2.4738    0.0000 Cl  0  0  0  0  0  0  0  0  0  0  0  0
    0.7125    2.0613    0.0000 C   0  0  0  0  0  0  0  0  0  0  0  0
    0.7125    1.2363    0.0000 C   0  0  0  0  0  0  0  0  0  0  0  0
    1.4269    0.8238    0.0000 C   0  0  0  0  0  0  0  0  0  0  0  0
    1.4269   -0.0012    0.0000 C   0  0  0  0  0  0  0  0  0  0  0  0
    0.7125   -0.4137    0.0000 C   0  0  0  0  0  0  0  0  0  0  0  0
   -0.0020   -0.0012    0.0000 C   0  0  0  0  0  0  0  0  0  0  0  0
   -0.0020    0.8238    0.0000 C   0  0  0  0  0  0  0  0  0  0  0  0
   -0.7165    1.2363    0.0000 Cl  0  0  0  0  0  0  0  0  0  0  0  0
  1  2  1  0
  2  3  1  0
  3  4  2  0
  4  5  1  0
  5  6  2  0
  6  7  1  0
  7  8  2  0
  3  8  1  0
  8  9  1  0
M  END
>  <id>  (66) 
1132

>  <casrn>  (66) 
611-19-8

>  <smiles (First)>  (66) 


>  <Molecular weight>  (66) 
161.02853393554688

>  <name>  (66) 
1-chloro-2-(chloromethyl)benzene

>  <Outcome>  (66) 
1

>  <Molecule (RDKit Mol) (InChI Code)>  (66) 
InChI=1S/C7H6Cl2/c8-5-6-3-1-2-4-7(6)9/h1-4H,5H2

>  <reference>  (66) 
ECHA

>  <molecule_form>  (66) 
A

>  <ID>  (66) 


>  <SMILES>  (66) 
ClCc1ccccc1Cl

>  <ROMol>  (66) 
<rdkit.Chem.rdchem.Mol object at 0x0000027F6246B7B0>

$$$$

     RDKit          2D

  3  2  0  0  0  0  0  0  0  0999 V2000
    1.7593   -1.4292    0.0000 C   0  0  0  0  0  0  0  0  0  0  0  0
    1.3468   -0.7147    0.0000 C   0  0  0  0  0  0  0  0  0  0  0  0
    0.5218   -0.7147    0.0000 Cl  0  0  0  0  0  0  0  0  0  0  0  0
  1  2  1  0
  2  3  1  0
M  END
>  <id>  (67) 
2799; 2798

>  <casrn>  (67) 
75-00-3

>  <smiles (First)>  (67) 


>  <Molecular weight>  (67) 
64.51409912109375

>  <name>  (67) 
chloroethane

>  <Outcome>  (67) 
0

>  <Molecule (RDKit Mol) (InChI Code)>  (67) 
InChI=1S/C2H5Cl/c1-2-3/h2H2,1H3

>  <reference>  (67) 
ECHA

>  <molecule_form>  (67) 
V

>  <ID>  (67) 


>  <SMILES>  (67) 
CCCl

>  <ROMol>  (67) 
<rdkit.Chem.rdchem.Mol object at 0x0000027F5843AAC0>

$$$$

     RDKit          2D

 28 27  0  0  0  0  0  0  0  0999 V2000
   -0.4841    4.7187    0.0000 C   0  0  0  0  0  0  0  0  0  0  0  0
    0.2304    4.3062    0.0000 C   0  0  0  0  0  0  0  0  0  0  0  0
    0.9448    4.7187    0.0000 C   0  0  0  0  0  0  0  0  0  0  0  0
    1.6593    4.3062    0.0000 C   0  0  0  0  0  0  0  0  0  0  0  0
    2.3738    4.7187    0.0000 C   0  0  0  0  0  0  0  0  0  0  0  0
    3.0882    4.3062    0.0000 C   0  0  0  0  0  0  0  0  0  0  0  0
    3.8027    4.7187    0.0000 C   0  0  0  0  0  0  0  0  0  0  0  0
    4.5172    4.3062    0.0000 C   0  0  0  0  0  0  0  0  0  0  0  0
    5.2317    4.7187    0.0000 C   0  0  0  0  0  0  0  0  0  0  0  0
    5.9461    4.3062    0.0000 C   0  0  0  0  0  0  0  0  0  0  0  0
    6.6606    4.7187    0.0000 C   0  0  0  0  0  0  0  0  0  0  0  0
    7.3751    4.3062    0.0000 C   0  0  0  0  0  0  0  0  0  0  0  0
    8.0895    4.7187    0.0000 C   0  0  0  0  0  0  0  0  0  0  0  0
    8.8040    4.3062    0.0000 C   0  0  0  0  0  0  0  0  0  0  0  0
    9.5185    4.7187    0.0000 C   0  0  0  0  0  0  0  0  0  0  0  0
   10.2329    4.3062    0.0000 C   0  0  0  0  0  0  0  0  0  0  0  0
   10.9474    4.7187    0.0000 C   0  0  0  0  0  0  0  0  0  0  0  0
   11.6619    4.3062    0.0000 C   0  0  0  0  0  0  0  0  0  0  0  0
   11.6619    3.4812    0.0000 O   0  0  0  0  0  0  0  0  0  0  0  0
   12.3764    4.7187    0.0000 O   0  0  0  0  0  0  0  0  0  0  0  0
   13.0908    4.3062    0.0000 C   0  0  0  0  0  0  0  0  0  0  0  0
   13.8053    4.7187    0.0000 C   0  0  0  0  0  0  0  0  0  0  0  0
   13.8053    5.5437    0.0000 C   0  0  0  0  0  0  0  0  0  0  0  0
   14.5198    5.9562    0.0000 C   0  0  0  0  0  0  0  0  0  0  0  0
   14.5198    4.3062    0.0000 C   0  0  0  0  0  0  0  0  0  0  0  0
   15.2342    4.7187    0.0000 C   0  0  0  0  0  0  0  0  0  0  0  0
   15.9487    4.3062    0.0000 C   0  0  0  0  0  0  0  0  0  0  0  0
   16.6632    4.7187    0.0000 C   0  0  0  0  0  0  0  0  0  0  0  0
  1  2  1  0
  2  3  1  0
  3  4  1  0
  4  5  1  0
  5  6  1  0
  6  7  1  0
  7  8  1  0
  9  8  1  0
  9 10  2  3
 10 11  1  0
 11 12  1  0
 12 13  1  0
 13 14  1  0
 14 15  1  0
 15 16  1  0
 16 17  1  0
 17 18  1  0
 18 19  2  0
 18 20  1  0
 20 21  1  0
 21 22  1  0
 22 23  1  0
 23 24  1  0
 22 25  1  0
 25 26  1  0
 26 27  1  0
 27 28  1  0
M  END
>  <id>  (68) 
1468

>  <casrn>  (68) 
26399-02-0

>  <smiles (First)>  (68) 


>  <Molecular weight>  (68) 
394.67401123046875

>  <name>  (68) 
2-ethylhexyl (9Z)-octadec-9-enoate

>  <Outcome>  (68) 
0

>  <Molecule (RDKit Mol) (InChI Code)>  (68) 
InChI=1S/C26H50O2/c1-4-7-9-10-11-12-13-14-15-16-17-18-19-20-21-23-26(27)28-24-25(6-3)22-8-5-2/h14-15,25H,4-13,16-24H2,1-3H3

>  <reference>  (68) 
ECHA

>  <molecule_form>  (68) 
A

>  <ID>  (68) 


>  <SMILES>  (68) 
CCCCCCCCC=CCCCCCCCC(=O)OCC(CC)CCCC

>  <ROMol>  (68) 
<rdkit.Chem.rdchem.Mol object at 0x0000027F58437890>

$$$$

     RDKit          2D

 10  9  0  0  0  0  0  0  0  0999 V2000
   -0.5773   -0.9186    0.0000 C   0  0  0  0  0  0  0  0  0  0  0  0
    0.1372   -0.5061    0.0000 C   0  0  0  0  0  0  0  0  0  0  0  0
    0.8516   -0.9186    0.0000 C   0  0  0  0  0  0  0  0  0  0  0  0
    0.8516   -1.7436    0.0000 C   0  0  0  0  0  0  0  0  0  0  0  0
    1.5661   -0.5061    0.0000 C   0  0  0  0  0  0  0  0  0  0  0  0
    2.2806   -0.9186    0.0000 O   0  0  0  0  0  0  0  0  0  0  0  0
    2.9950   -0.5061    0.0000 C   0  0  0  0  0  0  0  0  0  0  0  0
    2.9950    0.3189    0.0000 O   0  0  0  0  0  0  0  0  0  0  0  0
    3.7095   -0.9186    0.0000 C   0  0  0  0  0  0  0  0  0  0  0  0
    4.4240   -0.5061    0.0000 C   0  0  0  0  0  0  0  0  0  0  0  0
  1  2  1  0
  2  3  1  0
  3  4  1  0
  3  5  1  0
  5  6  1  0
  6  7  1  0
  7  8  2  0
  7  9  1  0
  9 10  2  0
M  END
>  <id>  (69) 
263558

>  <casrn>  (69) 
44914-03-6

>  <smiles (First)>  (69) 
CCC(C)COC(=O)C=C

>  <Molecular weight>  (69) 
142.195556640625

>  <name>  (69) 
2-Propenoic acid, 2-methylbutyl ester

>  <Outcome>  (69) 
1

>  <Molecule (RDKit Mol) (InChI Code)>  (69) 
InChI=1S/C8H14O2/c1-4-7(3)6-10-8(9)5-2/h5,7H,2,4,6H2,1,3H3

>  <reference>  (69) 
ToxValDB

>  <molecule_form>  (69) 
not specified

>  <ID>  (69) 


>  <SMILES>  (69) 
C=CC(=O)OCC(C)CC

>  <ROMol>  (69) 
<rdkit.Chem.rdchem.Mol object at 0x0000027F62462510>

$$$$

     RDKit          2D

  9  9  0  0  0  0  0  0  0  0999 V2000
    2.4118    1.2504    0.0000 C   0  0  0  0  0  0  0  0  0  0  0  0
    1.6974    0.8379    0.0000 N   0  0  0  0  0  0  0  0  0  0  0  0
    1.6974    0.0129    0.0000 C   0  0  0  0  0  0  0  0  0  0  0  0
    0.9829   -0.3996    0.0000 C   0  0  0  0  0  0  0  0  0  0  0  0
    0.2684    0.0129    0.0000 O   0  0  0  0  0  0  0  0  0  0  0  0
    0.2684    0.8379    0.0000 Si  0  0  0  0  0  4  0  0  0  0  0  0
   -0.5441    0.6947    0.0000 C   0  0  0  0  0  0  0  0  0  0  0  0
   -0.0138    1.6132    0.0000 C   0  0  0  0  0  0  0  0  0  0  0  0
    0.9829    1.2504    0.0000 C   0  0  0  0  0  0  0  0  0  0  0  0
  1  2  1  0
  2  3  1  0
  3  4  1  0
  4  5  1  0
  5  6  1  0
  6  7  1  0
  6  8  1  0
  6  9  1  0
  2  9  1  0
M  END
>  <id>  (70) 
1263

>  <casrn>  (70) 
10196-49-3

>  <smiles (First)>  (70) 


>  <Molecular weight>  (70) 
145.27490234375

>  <name>  (70) 
2,2,4-trimethyl-1,4,2-oxazasilinane

>  <Outcome>  (70) 
0

>  <Molecule (RDKit Mol) (InChI Code)>  (70) 
InChI=1S/C6H15NOSi/c1-7-4-5-8-9(2,3)6-7/h4-6H2,1-3H3

>  <reference>  (70) 
ECHA

>  <molecule_form>  (70) 
V

>  <ID>  (70) 


>  <SMILES>  (70) 
CN1CCO[Si](C)(C)C1

>  <ROMol>  (70) 
<rdkit.Chem.rdchem.Mol object at 0x0000027F5843A740>

$$$$

     RDKit          2D

 10 11  0  0  0  0  0  0  0  0999 V2000
   -0.0199   -2.4558    0.0000 C   0  0  0  0  0  0  0  0  0  0  0  0
    0.6946   -2.0433    0.0000 C   0  0  0  0  0  0  0  0  0  0  0  0
    0.6946   -1.2183    0.0000 C   0  0  0  0  0  0  0  0  0  0  0  0
   -0.0900   -1.4732    0.0000 C   0  0  0  0  0  0  0  0  0  0  0  0
   -0.5750   -0.8058    0.0000 O   0  0  0  0  0  0  0  0  0  0  0  0
   -0.0900   -0.1384    0.0000 C   0  0  0  0  0  0  0  0  0  0  0  0
    0.6946   -0.3933    0.0000 N   0  0  0  0  0  0  0  0  0  0  0  0
    1.4792   -0.1384    0.0000 C   0  0  0  0  0  0  0  0  0  0  0  0
    1.9641   -0.8058    0.0000 O   0  0  0  0  0  0  0  0  0  0  0  0
    1.4792   -1.4732    0.0000 C   0  0  0  0  0  0  0  0  0  0  0  0
  1  2  1  0
  2  3  1  0
  3  4  1  0
  4  5  1  0
  5  6  1  0
  6  7  1  0
  3  7  1  0
  7  8  1  0
  8  9  1  0
  9 10  1  0
  3 10  1  0
M  END
>  <id>  (71) 
1892

>  <casrn>  (71) 
7747-35-5

>  <smiles (First)>  (71) 


>  <Molecular weight>  (71) 
143.18362426757812

>  <name>  (71) 
7a-ethyldihydro-1H-[1,3]oxazolo[3,4-c][1,3]oxazole

>  <Outcome>  (71) 
1

>  <Molecule (RDKit Mol) (InChI Code)>  (71) 
InChI=1S/C7H13NO2/c1-2-7-3-9-5-8(7)6-10-4-7/h2-6H2,1H3

>  <reference>  (71) 
ECHA

>  <molecule_form>  (71) 
A

>  <ID>  (71) 


>  <SMILES>  (71) 
CCC12COCN1COC2

>  <ROMol>  (71) 
<rdkit.Chem.rdchem.Mol object at 0x0000027F584AC040>

$$$$

     RDKit          2D

 13 12  0  0  0  0  0  0  0  0999 V2000
    1.2375    0.7145    0.0000 F   0  0  0  0  0  0  0  0  0  0  0  0
    0.8250    0.0000    0.0000 C   0  0  0  0  0  0  0  0  0  0  0  0
    1.2375   -0.7145    0.0000 F   0  0  0  0  0  0  0  0  0  0  0  0
   -0.0000    0.0000    0.0000 C   0  0  0  0  0  0  0  0  0  0  0  0
   -0.4125    0.7145    0.0000 F   0  0  0  0  0  0  0  0  0  0  0  0
   -0.4125   -0.7145    0.0000 O   0  0  0  0  0  0  0  0  0  0  0  0
    0.0000   -1.4289    0.0000 C   0  0  0  0  0  0  0  0  0  0  0  0
   -0.7145   -1.8414    0.0000 F   0  0  0  0  0  0  0  0  0  0  0  0
    0.7145   -1.0164    0.0000 F   0  0  0  0  0  0  0  0  0  0  0  0
    0.4125   -2.1434    0.0000 C   0  0  0  0  0  0  0  0  0  0  0  0
    0.8250   -2.8579    0.0000 F   0  0  0  0  0  0  0  0  0  0  0  0
   -0.3020   -2.5559    0.0000 F   0  0  0  0  0  0  0  0  0  0  0  0
    1.1270   -1.7309    0.0000 F   0  0  0  0  0  0  0  0  0  0  0  0
  1  2  1  0
  2  3  1  0
  2  4  2  0
  4  5  1  0
  4  6  1  0
  6  7  1  0
  7  8  1  0
  7  9  1  0
  7 10  1  0
 10 11  1  0
 10 12  1  0
 10 13  1  0
M  END
>  <id>  (72) 
888

>  <casrn>  (72) 
10493-43-3

>  <smiles (First)>  (72) 


>  <Molecular weight>  (72) 
216.02943420410156

>  <name>  (72) 
1,1,2-trifluoro-2-(pentafluoroethoxy)ethene

>  <Outcome>  (72) 
0

>  <Molecule (RDKit Mol) (InChI Code)>  (72) 
InChI=1S/C4F8O/c5-1(6)2(7)13-4(11,12)3(8,9)10

>  <reference>  (72) 
ECHA

>  <molecule_form>  (72) 
V

>  <ID>  (72) 


>  <SMILES>  (72) 
FC(F)=C(F)OC(F)(F)C(F)(F)F

>  <ROMol>  (72) 
<rdkit.Chem.rdchem.Mol object at 0x0000027F5843A120>

$$$$

     RDKit          2D

  5  4  0  0  0  0  0  0  0  0999 V2000
    1.0875    0.1949    0.0000 C   0  0  0  0  0  0  0  0  0  0  0  0
    0.6750   -0.5196    0.0000 C   0  0  0  0  0  0  0  0  0  0  0  0
   -0.1500   -0.5196    0.0000 C   0  0  0  0  0  0  0  0  0  0  0  0
   -0.5625   -1.2341    0.0000 C   0  0  0  0  0  0  0  0  0  0  0  0
   -0.1500   -1.9485    0.0000 O   0  0  0  0  0  0  0  0  0  0  0  0
  2  1  1  0
  2  3  2  3
  3  4  1  0
  4  5  2  0
M  END
>  <id>  (73) 
262651; 262674

>  <casrn>  (73) 
4170-30-3

>  <smiles (First)>  (73) 
C\C=C/C=O

>  <Molecular weight>  (73) 
70.08984375

>  <name>  (73) 
Crotonaldehyde

>  <Outcome>  (73) 
1

>  <Molecule (RDKit Mol) (InChI Code)>  (73) 
InChI=1S/C4H6O/c1-2-3-4-5/h2-4H,1H3

>  <reference>  (73) 
ToxValDB

>  <molecule_form>  (73) 
not specified

>  <ID>  (73) 


>  <SMILES>  (73) 
CC=CC=O

>  <ROMol>  (73) 
<rdkit.Chem.rdchem.Mol object at 0x0000027F58618DD0>

$$$$

     RDKit          2D

 14 13  0  0  0  0  0  0  0  0999 V2000
    5.0558   -0.6659    0.0000 C   0  0  0  0  0  0  0  0  0  0  0  0
    4.6433    0.0486    0.0000 C   0  0  0  0  0  0  0  0  0  0  0  0
    5.0558    0.7630    0.0000 O   0  0  0  0  0  0  0  0  0  0  0  0
    3.8183    0.0486    0.0000 O   0  0  0  0  0  0  0  0  0  0  0  0
    3.4058    0.7630    0.0000 C   0  0  0  0  0  0  0  0  0  0  0  0
    4.1202    1.1755    0.0000 C   0  0  0  0  0  0  0  0  0  0  0  0
    2.6913    0.3505    0.0000 C   0  0  0  0  0  0  0  0  0  0  0  0
    2.9933    1.4775    0.0000 C   0  0  0  0  0  0  0  0  0  0  0  0
    2.1683    1.4775    0.0000 C   0  0  0  0  0  0  0  0  0  0  0  0
    1.7558    2.1920    0.0000 C   0  0  0  0  0  0  0  0  0  0  0  0
    0.9308    2.1920    0.0000 C   0  0  0  0  0  0  0  0  0  0  0  0
    0.5183    1.4775    0.0000 C   0  0  0  0  0  0  0  0  0  0  0  0
    0.5183    2.9064    0.0000 C   0  0  0  0  0  0  0  0  0  0  0  0
   -0.3067    2.9064    0.0000 C   0  0  0  0  0  0  0  0  0  0  0  0
  1  2  1  0
  2  3  2  0
  2  4  1  0
  4  5  1  0
  5  6  1  0
  5  7  1  0
  5  8  1  0
  8  9  1  0
  9 10  1  0
 10 11  1  0
 11 12  2  0
 11 13  1  0
 13 14  2  0
M  END
>  <id>  (74) 
328296; 901506; 797134; 797359; 797362; 797364; 797365

>  <casrn>  (74) 
8006-64-2

>  <smiles (First)>  (74) 
CC(=O)OC(C)(C)CCCC(=C)C=C

>  <Molecular weight>  (74) 
196.2860107421875

>  <name>  (74) 
Turpentine oils

>  <Outcome>  (74) 
1

>  <Molecule (RDKit Mol) (InChI Code)>  (74) 
InChI=1S/C12H20O2/c1-6-10(2)8-7-9-12(4,5)14-11(3)13/h6H,1-2,7-9H2,3-5H3

>  <reference>  (74) 
ToxValDB

>  <molecule_form>  (74) 
not specified

>  <ID>  (74) 


>  <SMILES>  (74) 
C=CC(=C)CCCC(C)(C)OC(C)=O

>  <ROMol>  (74) 
<rdkit.Chem.rdchem.Mol object at 0x0000027F6244F2E0>

$$$$

     RDKit          2D

 17 19  0  0  0  0  0  0  0  0999 V2000
   -2.4110    0.7647    0.0000 C   0  0  0  0  0  0  0  0  0  0  0  0
   -1.6966    0.3522    0.0000 C   0  0  0  0  0  0  0  0  0  0  0  0
   -0.9821    0.7647    0.0000 C   0  0  0  0  0  0  0  0  0  0  0  0
   -0.7759   -0.0603    0.0000 C   0  0  0  0  0  0  0  0  0  0  0  0
   -0.9821   -0.8853    0.0000 C   0  0  0  0  0  0  0  0  0  0  0  0
   -0.2676   -0.4728    0.0000 C   0  0  0  0  0  0  0  0  0  0  0  0
   -0.2676    0.3522    0.0000 C   0  0  0  0  0  0  0  0  0  0  0  0
    0.4468    0.7647    0.0000 C   0  0  0  0  0  0  0  0  0  0  0  0
    1.1613    0.3522    0.0000 C   0  0  0  0  0  0  0  0  0  0  0  0
    1.8758    0.7647    0.0000 C   0  0  0  0  0  0  0  0  0  0  0  0
    1.8758    1.5897    0.0000 C   0  0  0  0  0  0  0  0  0  0  0  0
    1.1613    2.0022    0.0000 C   0  0  0  0  0  0  0  0  0  0  0  0
    1.1613    2.8272    0.0000 O   0  0  0  0  0  0  0  0  0  0  0  0
    0.4468    1.5897    0.0000 C   0  0  0  0  0  0  0  0  0  0  0  0
   -1.6966   -0.4728    0.0000 C   0  0  0  0  0  0  0  0  0  0  0  0
   -1.9787   -1.2481    0.0000 C   0  0  0  0  0  0  0  0  0  0  0  0
   -2.5090   -0.3295    0.0000 C   0  0  0  0  0  0  0  0  0  0  0  0
  1  2  1  0
  3  2  1  0
  3  4  1  0
  4  5  1  0
  5  6  1  0
  6  7  1  0
  7  8  1  0
  9  8  1  0
 10  9  1  0
 11 10  1  0
 12 11  1  0
 12 13  1  0
 14 12  1  0
 15  5  1  0
 15 16  1  0
 15 17  1  0
  2 15  1  0
  7  3  1  0
  8 14  1  0
M  END
>  <id>  (75) 
258750

>  <casrn>  (75) 
3407-42-9

>  <smiles (First)>  (75) 
CC1C2CC(CC2C3CCCC(O)C3)C1(C)C

>  <Molecular weight>  (75) 
236.39292907714844

>  <name>  (75) 
3-(5,5,6-Trimethylbicyclo[2.2.1]hept-2-yl)cyclohexanol

>  <Outcome>  (75) 
0

>  <Molecule (RDKit Mol) (InChI Code)>  (75) 
InChI=1S/C16H28O/c1-10-14-8-12(16(10,2)3)9-15(14)11-5-4-6-13(17)7-11/h10-15,17H,4-9H2,1-3H3

>  <reference>  (75) 
ToxValDB

>  <molecule_form>  (75) 
not specified

>  <ID>  (75) 


>  <SMILES>  (75) 
CC1C2CC(CC2C2CCCC(O)C2)C1(C)C

>  <ROMol>  (75) 
<rdkit.Chem.rdchem.Mol object at 0x0000027F585E3430>

$$$$

     RDKit          2D

  6  5  0  0  0  0  0  0  0  0999 V2000
    0.1071   -1.2355    0.0000 O   0  0  0  0  0  0  0  0  0  0  0  0
    0.8216   -0.8230    0.0000 C   0  0  0  0  0  0  0  0  0  0  0  0
    0.8216    0.0020    0.0000 C   0  0  0  0  0  0  0  0  0  0  0  0
    0.8216    0.8270    0.0000 F   0  0  0  0  0  0  0  0  0  0  0  0
    1.6466    0.0020    0.0000 F   0  0  0  0  0  0  0  0  0  0  0  0
   -0.0034    0.0020    0.0000 F   0  0  0  0  0  0  0  0  0  0  0  0
  1  2  1  0
  2  3  1  0
  3  4  1  0
  3  5  1  0
  3  6  1  0
M  END
>  <id>  (76) 
1239

>  <casrn>  (76) 
75-89-8

>  <smiles (First)>  (76) 


>  <Molecular weight>  (76) 
100.03983306884766

>  <name>  (76) 
2,2,2-trifluoroethan-1-ol

>  <Outcome>  (76) 
1

>  <Molecule (RDKit Mol) (InChI Code)>  (76) 
InChI=1S/C2H3F3O/c3-2(4,5)1-6/h6H,1H2

>  <reference>  (76) 
ECHA

>  <molecule_form>  (76) 
V

>  <ID>  (76) 


>  <SMILES>  (76) 
OCC(F)(F)F

>  <ROMol>  (76) 
<rdkit.Chem.rdchem.Mol object at 0x0000027F5C1496D0>

$$$$

     RDKit          2D

 17 16  0  0  0  0  0  0  0  0999 V2000
    7.9480    5.4144    0.0000 C   0  0  0  0  0  0  0  0  0  0  0  0
    8.6625    5.0019    0.0000 C   0  0  0  0  0  0  0  0  0  0  0  0
    9.3770    5.4144    0.0000 C   0  0  0  0  0  0  0  0  0  0  0  0
   10.0914    5.0019    0.0000 C   0  0  0  0  0  0  0  0  0  0  0  0
   10.8059    5.4144    0.0000 C   0  0  0  0  0  0  0  0  0  0  0  0
   11.5204    5.0019    0.0000 C   0  0  0  0  0  0  0  0  0  0  0  0
   12.2349    5.4144    0.0000 C   0  0  0  0  0  0  0  0  0  0  0  0
   12.9493    5.0019    0.0000 C   0  0  0  0  0  0  0  0  0  0  0  0
   13.6638    5.4144    0.0000 C   0  0  0  0  0  0  0  0  0  0  0  0
   14.3783    5.0019    0.0000 C   0  0  0  0  0  0  0  0  0  0  0  0
   15.0927    5.4144    0.0000 C   0  0  0  0  0  0  0  0  0  0  0  0
   15.8072    5.0019    0.0000 C   0  0  0  0  0  0  0  0  0  0  0  0
   16.5217    5.4144    0.0000 C   0  0  0  0  0  0  0  0  0  0  0  0
   17.2362    5.0019    0.0000 C   0  0  0  0  0  0  0  0  0  0  0  0
   17.9506    5.4144    0.0000 C   0  0  0  0  0  0  0  0  0  0  0  0
   18.6651    5.0019    0.0000 C   0  0  0  0  0  0  0  0  0  0  0  0
   19.3796    5.4144    0.0000 C   0  0  0  0  0  0  0  0  0  0  0  0
  1  2  1  0
  2  3  1  0
  3  4  1  0
  4  5  1  0
  5  6  1  0
  6  7  1  0
  7  8  1  0
  8  9  1  0
  9 10  1  0
 10 11  1  0
 11 12  1  0
 12 13  1  0
 13 14  1  0
 14 15  1  0
 15 16  1  0
 16 17  1  0
M  END
>  <id>  (77) 
3231; 3230

>  <casrn>  (77) 
629-78-7

>  <smiles (First)>  (77) 


>  <Molecular weight>  (77) 
240.46774291992188

>  <name>  (77) 
heptadecane

>  <Outcome>  (77) 
0

>  <Molecule (RDKit Mol) (InChI Code)>  (77) 
InChI=1S/C17H36/c1-3-5-7-9-11-13-15-17-16-14-12-10-8-6-4-2/h3-17H2,1-2H3

>  <reference>  (77) 
ECHA

>  <molecule_form>  (77) 
A

>  <ID>  (77) 


>  <SMILES>  (77) 
CCCCCCCCCCCCCCCCC

>  <ROMol>  (77) 
<rdkit.Chem.rdchem.Mol object at 0x0000027F58408A50>

$$$$

     RDKit          2D

  9  8  0  0  0  0  0  0  0  0999 V2000
    2.9980    2.5541    0.0000 Cl  0  0  0  0  0  0  0  0  0  0  0  0
    3.7125    2.1416    0.0000 C   0  0  0  0  0  0  0  0  0  0  0  0
    4.4270    2.5541    0.0000 C   0  0  0  0  0  0  0  0  0  0  0  0
    5.1414    2.1416    0.0000 O   0  0  0  0  0  0  0  0  0  0  0  0
    5.8559    2.5541    0.0000 C   0  0  0  0  0  0  0  0  0  0  0  0
    6.5704    2.1416    0.0000 O   0  0  0  0  0  0  0  0  0  0  0  0
    7.2849    2.5541    0.0000 C   0  0  0  0  0  0  0  0  0  0  0  0
    7.9993    2.1416    0.0000 C   0  0  0  0  0  0  0  0  0  0  0  0
    8.7138    2.5541    0.0000 Cl  0  0  0  0  0  0  0  0  0  0  0  0
  1  2  1  0
  2  3  1  0
  3  4  1  0
  4  5  1  0
  5  6  1  0
  6  7  1  0
  7  8  1  0
  8  9  1  0
M  END
>  <id>  (78) 
1135

>  <casrn>  (78) 
111-91-1

>  <smiles (First)>  (78) 


>  <Molecular weight>  (78) 
173.03770446777344

>  <name>  (78) 
1-chloro-2-[(2-chloroethoxy)methoxy]ethane

>  <Outcome>  (78) 
1

>  <Molecule (RDKit Mol) (InChI Code)>  (78) 
InChI=1S/C5H10Cl2O2/c6-1-3-8-5-9-4-2-7/h1-5H2

>  <reference>  (78) 
ECHA

>  <molecule_form>  (78) 
A

>  <ID>  (78) 


>  <SMILES>  (78) 
ClCCOCOCCCl

>  <ROMol>  (78) 
<rdkit.Chem.rdchem.Mol object at 0x0000027F624B12E0>

$$$$

     RDKit          2D

 34 35  0  0  0  0  0  0  0  0999 V2000
    1.5817   -8.4729    0.0000 C   0  0  0  0  0  0  0  0  0  0  0  0
    2.1120   -7.8410    0.0000 C   0  0  0  0  0  0  0  0  0  0  0  0
    2.6423   -8.4729    0.0000 C   0  0  0  0  0  0  0  0  0  0  0  0
    1.3976   -7.4285    0.0000 C   0  0  0  0  0  0  0  0  0  0  0  0
    1.3976   -6.6035    0.0000 N   0  0  0  0  0  0  0  0  0  0  0  0
    2.1120   -6.1910    0.0000 C   0  0  0  0  0  0  0  0  0  0  0  0
    2.8265   -6.6035    0.0000 C   0  0  0  0  0  0  0  0  0  0  0  0
    3.1087   -5.8282    0.0000 C   0  0  0  0  0  0  0  0  0  0  0  0
    3.6390   -6.7467    0.0000 C   0  0  0  0  0  0  0  0  0  0  0  0
    2.8265   -7.4285    0.0000 C   0  0  0  0  0  0  0  0  0  0  0  0
    3.5410   -7.8410    0.0000 O   0  0  0  0  0  0  0  0  0  0  0  0
    4.2555   -7.4285    0.0000 C   0  0  0  0  0  0  0  0  0  0  0  0
    4.2555   -6.6035    0.0000 O   0  0  0  0  0  0  0  0  0  0  0  0
    4.9699   -7.8410    0.0000 C   0  0  0  0  0  0  0  0  0  0  0  0
    5.6844   -7.4285    0.0000 C   0  0  0  0  0  0  0  0  0  0  0  0
    6.3989   -7.8410    0.0000 C   0  0  0  0  0  0  0  0  0  0  0  0
    7.1133   -7.4285    0.0000 C   0  0  0  0  0  0  0  0  0  0  0  0
    7.8278   -7.8410    0.0000 C   0  0  0  0  0  0  0  0  0  0  0  0
    8.5423   -7.4285    0.0000 C   0  0  0  0  0  0  0  0  0  0  0  0
    9.2568   -7.8410    0.0000 C   0  0  0  0  0  0  0  0  0  0  0  0
    9.9712   -7.4285    0.0000 C   0  0  0  0  0  0  0  0  0  0  0  0
   10.6857   -7.8410    0.0000 C   0  0  0  0  0  0  0  0  0  0  0  0
   10.6857   -8.6660    0.0000 O   0  0  0  0  0  0  0  0  0  0  0  0
   11.4002   -7.4285    0.0000 O   0  0  0  0  0  0  0  0  0  0  0  0
   12.1146   -7.8410    0.0000 C   0  0  0  0  0  0  0  0  0  0  0  0
   12.8291   -7.4285    0.0000 C   0  0  0  0  0  0  0  0  0  0  0  0
   12.2988   -6.7965    0.0000 C   0  0  0  0  0  0  0  0  0  0  0  0
   13.3594   -6.7965    0.0000 C   0  0  0  0  0  0  0  0  0  0  0  0
   13.5436   -7.8410    0.0000 C   0  0  0  0  0  0  0  0  0  0  0  0
   13.5436   -8.6660    0.0000 N   0  0  0  0  0  0  0  0  0  0  0  0
   12.8291   -9.0785    0.0000 C   0  0  0  0  0  0  0  0  0  0  0  0
   12.1146   -8.6660    0.0000 C   0  0  0  0  0  0  0  0  0  0  0  0
   11.6775   -9.3656    0.0000 C   0  0  0  0  0  0  0  0  0  0  0  0
   11.2901   -8.6947    0.0000 C   0  0  0  0  0  0  0  0  0  0  0  0
  1  2  1  0
  2  3  1  0
  2  4  1  0
  4  5  1  0
  5  6  1  0
  6  7  1  0
  7  8  1  0
  7  9  1  0
  7 10  1  0
  2 10  1  0
 10 11  1  0
 11 12  1  0
 12 13  2  0
 12 14  1  0
 14 15  1  0
 15 16  1  0
 16 17  1  0
 17 18  1  0
 18 19  1  0
 19 20  1  0
 20 21  1  0
 21 22  1  0
 22 23  2  0
 22 24  1  0
 24 25  1  0
 25 26  1  0
 26 27  1  0
 26 28  1  0
 26 29  1  0
 29 30  1  0
 30 31  1  0
 31 32  1  0
 25 32  1  0
 32 33  1  0
 32 34  1  0
M  END
>  <id>  (79) 
2647

>  <casrn>  (79) 
52829-07-9

>  <smiles (First)>  (79) 


>  <Molecular weight>  (79) 
480.7234802246094

>  <name>  (79) 
bis(2,2,6,6-tetramethylpiperidin-4-yl) decanedioate

>  <Outcome>  (79) 
1

>  <Molecule (RDKit Mol) (InChI Code)>  (79) 
InChI=1S/C28H52N2O4/c1-25(2)17-29-18-26(3,4)23(25)33-21(31)15-13-11-9-10-12-14-16-22(32)34-24-27(5,6)19-30-20-28(24,7)8/h23-24,29-30H,9-20H2,1-8H3

>  <reference>  (79) 
ECHA

>  <molecule_form>  (79) 
A

>  <ID>  (79) 


>  <SMILES>  (79) 
CC1(C)CNCC(C)(C)C1OC(=O)CCCCCCCCC(=O)OC1C(C)(C)CNCC1(C)C

>  <ROMol>  (79) 
<rdkit.Chem.rdchem.Mol object at 0x0000027F585E2B30>

$$$$

     RDKit          2D

 10 10  0  0  0  0  0  0  0  0999 V2000
    1.3773    2.2633    0.0000 C   0  0  0  0  0  0  0  0  0  0  0  0
    1.3773    1.4383    0.0000 C   0  0  0  0  0  0  0  0  0  0  0  0
    2.0918    1.0258    0.0000 C   0  0  0  0  0  0  0  0  0  0  0  0
    2.0918    0.2008    0.0000 C   0  0  0  0  0  0  0  0  0  0  0  0
    2.8062   -0.2117    0.0000 O   0  0  0  0  0  0  0  0  0  0  0  0
    1.3773   -0.2117    0.0000 C   0  0  0  0  0  0  0  0  0  0  0  0
    0.6628    0.2008    0.0000 C   0  0  0  0  0  0  0  0  0  0  0  0
    0.3806   -0.5745    0.0000 C   0  0  0  0  0  0  0  0  0  0  0  0
   -0.1497    0.3440    0.0000 C   0  0  0  0  0  0  0  0  0  0  0  0
    0.6628    1.0258    0.0000 C   0  0  0  0  0  0  0  0  0  0  0  0
  1  2  1  0
  2  3  1  0
  3  4  1  0
  4  5  2  0
  4  6  1  0
  6  7  1  0
  7  8  1  0
  7  9  1  0
  7 10  1  0
  2 10  1  0
M  END
>  <id>  (80) 
1718

>  <casrn>  (80) 
873-94-9

>  <smiles (First)>  (80) 


>  <Molecular weight>  (80) 
140.22274780273438

>  <name>  (80) 
3,3,5-trimethylcyclohexanone

>  <Outcome>  (80) 
0

>  <Molecule (RDKit Mol) (InChI Code)>  (80) 
InChI=1S/C9H16O/c1-7-4-8(10)6-9(2,3)5-7/h7H,4-6H2,1-3H3

>  <reference>  (80) 
ECHA

>  <molecule_form>  (80) 
A

>  <ID>  (80) 


>  <SMILES>  (80) 
CC1CC(=O)CC(C)(C)C1

>  <ROMol>  (80) 
<rdkit.Chem.rdchem.Mol object at 0x0000027F584DE0B0>

$$$$

     RDKit          2D

 17 18  0  0  0  0  0  0  0  0999 V2000
    2.1434   -0.4125    0.0000 N   0  0  0  0  0  0  0  0  0  0  0  0
    2.1434   -1.2375    0.0000 C   0  0  0  0  0  0  0  0  0  0  0  0
    2.8579   -1.6500    0.0000 N   0  0  0  0  0  0  0  0  0  0  0  0
    2.8579   -2.4750    0.0000 C   0  0  0  0  0  0  0  0  0  0  0  0
    3.5724   -2.8875    0.0000 N   0  0  0  0  0  0  0  0  0  0  0  0
    2.1434   -2.8875    0.0000 N   0  0  0  0  0  0  0  0  0  0  0  0
    1.4289   -2.4750    0.0000 C   0  0  0  0  0  0  0  0  0  0  0  0
    0.7145   -2.8875    0.0000 N   0  0  0  0  0  0  0  0  0  0  0  0
    0.0000   -2.4750    0.0000 C   0  0  0  0  0  0  0  0  0  0  0  0
   -0.7145   -2.8875    0.0000 N   0  0  0  0  0  0  0  0  0  0  0  0
   -1.4289   -2.4750    0.0000 C   0  0  0  0  0  0  0  0  0  0  0  0
   -2.1434   -2.8875    0.0000 N   0  0  0  0  0  0  0  0  0  0  0  0
   -1.4289   -1.6500    0.0000 N   0  0  0  0  0  0  0  0  0  0  0  0
   -0.7145   -1.2375    0.0000 C   0  0  0  0  0  0  0  0  0  0  0  0
   -0.7145   -0.4125    0.0000 N   0  0  0  0  0  0  0  0  0  0  0  0
    0.0000   -1.6500    0.0000 N   0  0  0  0  0  0  0  0  0  0  0  0
    1.4289   -1.6500    0.0000 N   0  0  0  0  0  0  0  0  0  0  0  0
  1  2  1  0
  2  3  2  0
  3  4  1  0
  4  5  1  0
  4  6  2  0
  6  7  1  0
  7  8  1  0
  8  9  1  0
  9 10  2  0
 10 11  1  0
 11 12  1  0
 11 13  2  0
 13 14  1  0
 14 15  1  0
 14 16  2  0
  9 16  1  0
  7 17  2  0
  2 17  1  0
M  END
>  <id>  (81) 
2507

>  <casrn>  (81) 
3576-88-3

>  <smiles (First)>  (81) 


>  <Molecular weight>  (81) 
235.2093505859375

>  <name>  (81) 
N~2~-(4,6-diamino-1,3,5-triazin-2-yl)-1,3,5-triazine-2,4,6-triamine

>  <Outcome>  (81) 
0

>  <Molecule (RDKit Mol) (InChI Code)>  (81) 
InChI=1S/C6H9N11/c7-1-11-2(8)14-5(13-1)17-6-15-3(9)12-4(10)16-6/h(H9,7,8,9,10,11,12,13,14,15,16,17)

>  <reference>  (81) 
ECHA

>  <molecule_form>  (81) 
A

>  <ID>  (81) 


>  <SMILES>  (81) 
Nc1nc(N)nc(Nc2nc(N)nc(N)n2)n1

>  <ROMol>  (81) 
<rdkit.Chem.rdchem.Mol object at 0x0000027F78E2CC10>

$$$$

     RDKit          2D

 16 15  0  0  0  0  0  0  0  0999 V2000
   -2.2235    3.0365    0.0000 C   0  0  0  0  0  0  0  0  0  0  0  0
   -1.5091    3.4490    0.0000 C   0  0  0  0  0  0  0  0  0  0  0  0
   -1.5091    4.2740    0.0000 C   0  0  0  0  0  0  0  0  0  0  0  0
   -0.7946    3.0365    0.0000 O   0  0  0  0  0  0  0  0  0  0  0  0
   -0.0801    3.4490    0.0000 C   0  0  0  0  0  0  0  0  0  0  0  0
   -0.0801    4.2740    0.0000 O   0  0  0  0  0  0  0  0  0  0  0  0
    0.6344    3.0365    0.0000 C   0  0  0  0  0  0  0  0  0  0  0  0
    1.3488    3.4490    0.0000 C   0  0  0  0  0  0  0  0  0  0  0  0
    2.0633    3.0365    0.0000 C   0  0  0  0  0  0  0  0  0  0  0  0
    2.7778    3.4490    0.0000 C   0  0  0  0  0  0  0  0  0  0  0  0
    3.4922    3.0365    0.0000 C   0  0  0  0  0  0  0  0  0  0  0  0
    3.4922    2.2115    0.0000 O   0  0  0  0  0  0  0  0  0  0  0  0
    4.2067    3.4490    0.0000 O   0  0  0  0  0  0  0  0  0  0  0  0
    4.9212    3.0365    0.0000 C   0  0  0  0  0  0  0  0  0  0  0  0
    5.6356    3.4490    0.0000 C   0  0  0  0  0  0  0  0  0  0  0  0
    4.9212    2.2115    0.0000 C   0  0  0  0  0  0  0  0  0  0  0  0
  1  2  1  0
  2  3  1  0
  2  4  1  0
  4  5  1  0
  5  6  2  0
  5  7  1  0
  7  8  1  0
  8  9  1  0
  9 10  1  0
 10 11  1  0
 11 12  2  0
 11 13  1  0
 13 14  1  0
 14 15  1  0
 14 16  1  0
M  END
>  <id>  (82) 
307169

>  <casrn>  (82) 
6938-94-9

>  <smiles (First)>  (82) 
CC(C)OC(=O)CCCCC(=O)OC(C)C

>  <Molecular weight>  (82) 
230.30068969726562

>  <name>  (82) 
Diisopropyl adipate

>  <Outcome>  (82) 
0

>  <Molecule (RDKit Mol) (InChI Code)>  (82) 
InChI=1S/C12H22O4/c1-9(2)15-11(13)7-5-6-8-12(14)16-10(3)4/h9-10H,5-8H2,1-4H3

>  <reference>  (82) 
ToxValDB

>  <molecule_form>  (82) 
not specified

>  <ID>  (82) 


>  <SMILES>  (82) 
CC(C)OC(=O)CCCCC(=O)OC(C)C

>  <ROMol>  (82) 
<rdkit.Chem.rdchem.Mol object at 0x0000027F78E26F90>

$$$$

     RDKit          2D

 12 12  0  0  0  0  0  0  0  0999 V2000
    1.4307    2.4760    0.0000 O   0  0  0  0  0  0  0  0  0  0  0  0
    0.7163    2.0635    0.0000 C   0  0  0  0  0  0  0  0  0  0  0  0
    0.0018    2.4760    0.0000 C   0  0  0  0  0  0  0  0  0  0  0  0
    0.0018    3.3010    0.0000 Cl  0  0  0  0  0  0  0  0  0  0  0  0
    0.7163    1.2385    0.0000 C   0  0  0  0  0  0  0  0  0  0  0  0
    1.4307    0.8260    0.0000 C   0  0  0  0  0  0  0  0  0  0  0  0
    1.4307    0.0010    0.0000 C   0  0  0  0  0  0  0  0  0  0  0  0
    0.7163   -0.4115    0.0000 C   0  0  0  0  0  0  0  0  0  0  0  0
    0.7163   -1.2365    0.0000 F   0  0  0  0  0  0  0  0  0  0  0  0
    0.0018    0.0010    0.0000 C   0  0  0  0  0  0  0  0  0  0  0  0
    0.0018    0.8260    0.0000 C   0  0  0  0  0  0  0  0  0  0  0  0
   -0.7127    1.2385    0.0000 F   0  0  0  0  0  0  0  0  0  0  0  0
  1  2  2  0
  2  3  1  0
  3  4  1  0
  2  5  1  0
  5  6  2  0
  6  7  1  0
  7  8  2  0
  8  9  1  0
  8 10  1  0
 10 11  2  0
  5 11  1  0
 11 12  1  0
M  END
>  <id>  (83) 
597

>  <casrn>  (83) 
51336-94-8

>  <smiles (First)>  (83) 


>  <Molecular weight>  (83) 
190.5745086669922

>  <name>  (83) 
-

>  <Outcome>  (83) 
1

>  <Molecule (RDKit Mol) (InChI Code)>  (83) 
InChI=1S/C8H5ClF2O/c9-4-8(12)6-2-1-5(10)3-7(6)11/h1-3H,4H2

>  <reference>  (83) 
ECHA

>  <molecule_form>  (83) 
V

>  <ID>  (83) 


>  <SMILES>  (83) 
O=C(CCl)c1ccc(F)cc1F

>  <ROMol>  (83) 
<rdkit.Chem.rdchem.Mol object at 0x0000027F5C1490B0>

$$$$

     RDKit          2D

 20 19  0  0  0  0  0  0  0  0999 V2000
   -0.7886   -0.9046    0.0000 C   0  0  0  0  0  0  0  0  0  0  0  0
   -0.0741   -1.3171    0.0000 C   0  0  0  0  0  0  0  0  0  0  0  0
    0.6404   -0.9046    0.0000 C   0  0  0  0  0  0  0  0  0  0  0  0
    1.3549   -1.3171    0.0000 C   0  0  0  0  0  0  0  0  0  0  0  0
    2.0693   -0.9046    0.0000 C   0  0  0  0  0  0  0  0  0  0  0  0
    2.7838   -1.3171    0.0000 C   0  0  0  0  0  0  0  0  0  0  0  0
    3.4983   -0.9046    0.0000 C   0  0  0  0  0  0  0  0  0  0  0  0
    4.2127   -1.3171    0.0000 C   0  0  0  0  0  0  0  0  0  0  0  0
    4.9272   -0.9046    0.0000 C   0  0  0  0  0  0  0  0  0  0  0  0
    5.6417   -1.3171    0.0000 C   0  0  0  0  0  0  0  0  0  0  0  0
    6.3561   -0.9046    0.0000 C   0  0  0  0  0  0  0  0  0  0  0  0
    6.3561   -0.0796    0.0000 C   0  0  0  0  0  0  0  0  0  0  0  0
    7.0706   -1.3171    0.0000 C   0  0  0  0  0  0  0  0  0  0  0  0
    7.7851   -0.9046    0.0000 C   0  0  0  0  0  0  0  0  0  0  0  0
    8.4996   -1.3171    0.0000 C   0  0  0  0  0  0  0  0  0  0  0  0
    9.2140   -0.9046    0.0000 C   0  0  0  0  0  0  0  0  0  0  0  0
    9.9285   -1.3171    0.0000 C   0  0  0  0  0  0  0  0  0  0  0  0
   10.6430   -0.9046    0.0000 C   0  0  0  0  0  0  0  0  0  0  0  0
   11.3574   -1.3171    0.0000 C   0  0  0  0  0  0  0  0  0  0  0  0
   12.0719   -0.9046    0.0000 C   0  0  0  0  0  0  0  0  0  0  0  0
  1  2  1  0
  2  3  1  0
  3  4  1  0
  4  5  1  0
  5  6  1  0
  6  7  1  0
  7  8  1  0
  8  9  1  0
  9 10  1  0
 10 11  1  0
 11 12  1  0
 11 13  1  0
 13 14  1  0
 14 15  1  0
 15 16  1  0
 16 17  1  0
 17 18  1  0
 18 19  1  0
 19 20  1  0
M  END
>  <id>  (84) 
242997; 906164; 906169; 906172

>  <casrn>  (84) 
17438-89-0

>  <smiles (First)>  (84) 
CCCCCCCCCCC(C)CCCCCCCC

>  <Molecular weight>  (84) 
282.5474853515625

>  <name>  (84) 
1-Decene, dimer

>  <Outcome>  (84) 
1

>  <Molecule (RDKit Mol) (InChI Code)>  (84) 
InChI=1S/C20H42/c1-4-6-8-10-12-13-15-17-19-20(3)18-16-14-11-9-7-5-2/h20H,4-19H2,1-3H3

>  <reference>  (84) 
ToxValDB

>  <molecule_form>  (84) 
not specified

>  <ID>  (84) 


>  <SMILES>  (84) 
CCCCCCCCCCC(C)CCCCCCCC

>  <ROMol>  (84) 
<rdkit.Chem.rdchem.Mol object at 0x0000027F6244F430>

$$$$

     RDKit          2D

  8  8  0  0  0  0  0  0  0  0999 V2000
    0.7145    2.0625    0.0000 C   0  0  0  0  0  0  0  0  0  0  0  0
    0.7145    1.2375    0.0000 C   0  0  0  0  0  0  0  0  0  0  0  0
    1.4289    0.8250    0.0000 C   0  0  0  0  0  0  0  0  0  0  0  0
    1.4289    0.0000    0.0000 N   0  0  0  0  0  0  0  0  0  0  0  0
    0.7145   -0.4125    0.0000 C   0  0  0  0  0  0  0  0  0  0  0  0
   -0.0000    0.0000    0.0000 C   0  0  0  0  0  0  0  0  0  0  0  0
   -0.7145   -0.4125    0.0000 C   0  0  0  0  0  0  0  0  0  0  0  0
   -0.0000    0.8250    0.0000 C   0  0  0  0  0  0  0  0  0  0  0  0
  1  2  1  0
  2  3  2  0
  3  4  1  0
  4  5  2  0
  5  6  1  0
  6  7  1  0
  6  8  2  0
  2  8  1  0
M  END
>  <id>  (85) 
1735

>  <casrn>  (85) 
591-22-0

>  <smiles (First)>  (85) 


>  <Molecular weight>  (85) 
107.15306091308594

>  <name>  (85) 
3,5-dimethylpyridine

>  <Outcome>  (85) 
1

>  <Molecule (RDKit Mol) (InChI Code)>  (85) 
InChI=1S/C7H9N/c1-6-3-7(2)5-8-4-6/h3-5H,1-2H3

>  <reference>  (85) 
ECHA

>  <molecule_form>  (85) 
V

>  <ID>  (85) 


>  <SMILES>  (85) 
Cc1cncc(C)c1

>  <ROMol>  (85) 
<rdkit.Chem.rdchem.Mol object at 0x0000027F624DDF90>

$$$$

     RDKit          2D

  7  6  0  0  0  0  0  0  0  0999 V2000
   -0.1915    0.7169    0.0000 C   0  0  0  0  0  0  0  0  0  0  0  0
    0.5230    1.1294    0.0000 C   0  0  0  0  0  0  0  0  0  0  0  0
    1.2375    0.7169    0.0000 C   0  0  0  0  0  0  0  0  0  0  0  0
    1.2375   -0.1081    0.0000 O   0  0  0  0  0  0  0  0  0  0  0  0
    1.9519    1.1294    0.0000 O   0  0  0  0  0  0  0  0  0  0  0  0
    2.6664    0.7169    0.0000 C   0  0  0  0  0  0  0  0  0  0  0  0
    3.3809    1.1294    0.0000 C   0  0  0  0  0  0  0  0  0  0  0  0
  1  2  2  0
  2  3  1  0
  3  4  2  0
  3  5  1  0
  5  6  1  0
  6  7  1  0
M  END
>  <id>  (86) 
3165; 3162

>  <casrn>  (86) 
140-88-5

>  <smiles (First)>  (86) 


>  <Molecular weight>  (86) 
100.1158218383789

>  <name>  (86) 
ethyl prop-2-enoate

>  <Outcome>  (86) 
1

>  <Molecule (RDKit Mol) (InChI Code)>  (86) 
InChI=1S/C5H8O2/c1-3-5(6)7-4-2/h3H,1,4H2,2H3

>  <reference>  (86) 
ECHA

>  <molecule_form>  (86) 
V

>  <ID>  (86) 


>  <SMILES>  (86) 
C=CC(=O)OCC

>  <ROMol>  (86) 
<rdkit.Chem.rdchem.Mol object at 0x0000027F58419200>

$$$$

     RDKit          2D

  6  6  0  0  0  0  0  0  0  0999 V2000
    1.4660    0.3982    0.0000 C   0  0  0  0  0  0  0  0  0  0  0  0
    0.6814    0.1432    0.0000 N   0  0  0  0  0  0  0  0  0  0  0  0
    0.0140    0.6281    0.0000 C   0  0  0  0  0  0  0  0  0  0  0  0
   -0.6535    0.1432    0.0000 C   0  0  0  0  0  0  0  0  0  0  0  0
   -0.3985   -0.6414    0.0000 C   0  0  0  0  0  0  0  0  0  0  0  0
    0.4265   -0.6414    0.0000 C   0  0  0  0  0  0  0  0  0  0  0  0
  1  2  1  0
  3  2  1  0
  4  3  1  0
  5  4  1  0
  6  5  1  0
  2  6  1  0
M  END
>  <id>  (87) 
905552

>  <casrn>  (87) 
120-94-5

>  <smiles (First)>  (87) 
CN1CCCC1

>  <Molecular weight>  (87) 
85.14753723144531

>  <name>  (87) 
N-Methylpyrrolidine

>  <Outcome>  (87) 
1

>  <Molecule (RDKit Mol) (InChI Code)>  (87) 
InChI=1S/C5H11N/c1-6-4-2-3-5-6/h2-5H2,1H3

>  <reference>  (87) 
ToxValDB

>  <molecule_form>  (87) 
not specified

>  <ID>  (87) 


>  <SMILES>  (87) 
CN1CCCC1

>  <ROMol>  (87) 
<rdkit.Chem.rdchem.Mol object at 0x0000027F585E37B0>

$$$$

     RDKit          2D

  9  9  0  0  0  0  0  0  0  0999 V2000
    1.2956    1.3226    0.0000 C   0  0  0  0  0  0  0  0  0  0  0  0
    0.5811    0.9101    0.0000 C   0  0  0  0  0  0  0  0  0  0  0  0
   -0.1333    1.3226    0.0000 C   0  0  0  0  0  0  0  0  0  0  0  0
   -0.8478    0.9101    0.0000 C   0  0  0  0  0  0  0  0  0  0  0  0
   -0.8478    0.0851    0.0000 C   0  0  0  0  0  0  0  0  0  0  0  0
   -1.5623   -0.3274    0.0000 N   0  0  0  0  0  0  0  0  0  0  0  0
   -0.1333   -0.3274    0.0000 C   0  0  0  0  0  0  0  0  0  0  0  0
   -0.1333   -1.1524    0.0000 C   0  0  0  0  0  0  0  0  0  0  0  0
    0.5811    0.0851    0.0000 C   0  0  0  0  0  0  0  0  0  0  0  0
  1  2  1  0
  3  2  2  0
  4  3  1  0
  5  4  2  0
  5  6  1  0
  7  5  1  0
  7  8  1  0
  9  7  2  0
  2  9  1  0
M  END
>  <id>  (88) 
351005; 913973

>  <casrn>  (88) 
95-68-1

>  <smiles (First)>  (88) 
Cc1ccc(N)c(C)c1

>  <Molecular weight>  (88) 
121.17964172363281

>  <name>  (88) 
2,4-Dimethylaniline

>  <Outcome>  (88) 
1

>  <Molecule (RDKit Mol) (InChI Code)>  (88) 
InChI=1S/C8H11N/c1-6-3-4-8(9)7(2)5-6/h3-5H,9H2,1-2H3

>  <reference>  (88) 
ToxValDB

>  <molecule_form>  (88) 
not specified

>  <ID>  (88) 


>  <SMILES>  (88) 
Cc1ccc(N)c(C)c1

>  <ROMol>  (88) 
<rdkit.Chem.rdchem.Mol object at 0x0000027F6244FE40>

$$$$

     RDKit          2D

  5  5  0  0  0  0  0  0  0  0999 V2000
    0.5662    1.1121    0.0000 C   0  0  0  0  0  0  0  0  0  0  0  0
    1.2336    0.6272    0.0000 C   0  0  0  0  0  0  0  0  0  0  0  0
    0.9787   -0.1575    0.0000 C   0  0  0  0  0  0  0  0  0  0  0  0
    0.1537   -0.1575    0.0000 N   0  0  0  0  0  0  0  0  0  0  0  0
   -0.1013    0.6272    0.0000 C   0  0  0  0  0  0  0  0  0  0  0  0
  1  2  1  0
  2  3  1  0
  3  4  1  0
  4  5  1  0
  1  5  1  0
M  END
>  <id>  (89) 
3815; 3817

>  <casrn>  (89) 
123-75-1

>  <smiles (First)>  (89) 


>  <Molecular weight>  (89) 
71.12096405029297

>  <name>  (89) 
pyrrolidine

>  <Outcome>  (89) 
1

>  <Molecule (RDKit Mol) (InChI Code)>  (89) 
InChI=1S/C4H9N/c1-2-4-5-3-1/h5H,1-4H2

>  <reference>  (89) 
ECHA

>  <molecule_form>  (89) 
V

>  <ID>  (89) 


>  <SMILES>  (89) 
C1CCNC1

>  <ROMol>  (89) 
<rdkit.Chem.rdchem.Mol object at 0x0000027F585E24A0>

$$$$

     RDKit          2D

 13 14  0  0  0  0  0  0  0  0999 V2000
    0.7145   -0.4125    0.0000 O   0  0  0  0  0  0  0  0  0  0  0  0
    0.7145   -1.2375    0.0000 C   0  0  0  0  0  0  0  0  0  0  0  0
    1.3819   -1.7224    0.0000 C   0  0  0  0  0  0  0  0  0  0  0  0
    1.1270   -2.5070    0.0000 C   0  0  0  0  0  0  0  0  0  0  0  0
    0.3020   -2.5070    0.0000 C   0  0  0  0  0  0  0  0  0  0  0  0
   -0.1829   -3.1745    0.0000 O   0  0  0  0  0  0  0  0  0  0  0  0
    0.0470   -1.7224    0.0000 N   0  0  0  0  0  0  0  0  0  0  0  0
   -0.7376   -1.4675    0.0000 C   0  0  0  0  0  0  0  0  0  0  0  0
   -1.3507   -2.0195    0.0000 C   0  0  0  0  0  0  0  0  0  0  0  0
   -2.1353   -1.7646    0.0000 C   0  0  0  0  0  0  0  0  0  0  0  0
   -2.3068   -0.9576    0.0000 C   0  0  0  0  0  0  0  0  0  0  0  0
   -1.6937   -0.4056    0.0000 C   0  0  0  0  0  0  0  0  0  0  0  0
   -0.9091   -0.6605    0.0000 C   0  0  0  0  0  0  0  0  0  0  0  0
  1  2  2  0
  2  3  1  0
  3  4  2  0
  4  5  1  0
  5  6  2  0
  5  7  1  0
  2  7  1  0
  7  8  1  0
  8  9  2  0
  9 10  1  0
 10 11  2  0
 11 12  1  0
 12 13  2  0
  8 13  1  0
M  END
>  <id>  (90) 
1208

>  <casrn>  (90) 
941-69-5

>  <smiles (First)>  (90) 


>  <Molecular weight>  (90) 
173.16807556152344

>  <name>  (90) 
1-phenyl-2,5-dihydro-1H-pyrrole-2,5-dione

>  <Outcome>  (90) 
1

>  <Molecule (RDKit Mol) (InChI Code)>  (90) 
InChI=1S/C10H7NO2/c12-9-6-7-10(13)11(9)8-4-2-1-3-5-8/h1-7H

>  <reference>  (90) 
ECHA

>  <molecule_form>  (90) 
A

>  <ID>  (90) 


>  <SMILES>  (90) 
O=C1C=CC(=O)N1c1ccccc1

>  <ROMol>  (90) 
<rdkit.Chem.rdchem.Mol object at 0x0000027F624DD660>

$$$$

     RDKit          2D

  5  4  0  0  0  0  0  0  0  0999 V2000
    2.0599   -0.7189    0.0000 O   0  0  0  0  0  0  0  0  0  0  0  0
    1.2349   -0.7189    0.0000 C   0  0  0  0  0  0  0  0  0  0  0  0
    0.8224   -1.4333    0.0000 Cl  0  0  0  0  0  0  0  0  0  0  0  0
    0.8224   -0.0044    0.0000 C   0  0  0  0  0  0  0  0  0  0  0  0
   -0.0026   -0.0044    0.0000 Cl  0  0  0  0  0  0  0  0  0  0  0  0
  1  2  2  0
  2  3  1  0
  2  4  1  0
  4  5  1  0
M  END
>  <id>  (91) 
2792; 2790

>  <casrn>  (91) 
79-04-9

>  <smiles (First)>  (91) 


>  <Molecular weight>  (91) 
112.94268035888672

>  <name>  (91) 
chloroacetyl chloride

>  <Outcome>  (91) 
1

>  <Molecule (RDKit Mol) (InChI Code)>  (91) 
InChI=1S/C2H2Cl2O/c3-1-2(4)5/h1H2

>  <reference>  (91) 
ECHA

>  <molecule_form>  (91) 
V

>  <ID>  (91) 


>  <SMILES>  (91) 
O=C(Cl)CCl

>  <ROMol>  (91) 
<rdkit.Chem.rdchem.Mol object at 0x0000027F5C1443C0>

$$$$

     RDKit          2D

 12 11  0  0  0  0  0  0  0  0999 V2000
    2.9394    2.5581    0.0000 C   0  0  0  0  0  0  0  0  0  0  0  0
    3.6538    2.1456    0.0000 C   0  0  0  0  0  0  0  0  0  0  0  0
    4.3683    2.5581    0.0000 C   0  0  0  0  0  0  0  0  0  0  0  0
    5.0828    2.1456    0.0000 C   0  0  0  0  0  0  0  0  0  0  0  0
    5.7972    2.5581    0.0000 C   0  0  0  0  0  0  0  0  0  0  0  0
    5.7972    3.3831    0.0000 C   0  0  0  0  0  0  0  0  0  0  0  0
    6.5117    3.7956    0.0000 C   0  0  0  0  0  0  0  0  0  0  0  0
    6.5117    2.1456    0.0000 C   0  0  0  0  0  0  0  0  0  0  0  0
    6.5117    1.3206    0.0000 O   0  0  0  0  0  0  0  0  0  0  0  0
    7.2262    2.5581    0.0000 O   0  0  0  0  0  0  0  0  0  0  0  0
    7.9407    2.1456    0.0000 C   0  0  0  0  0  0  0  0  0  0  0  0
    8.6551    2.5581    0.0000 C   0  0  0  0  0  0  0  0  0  0  0  0
  1  2  1  0
  2  3  1  0
  3  4  1  0
  4  5  1  0
  5  6  1  0
  6  7  1  0
  5  8  1  0
  8  9  2  0
  8 10  1  0
 10 11  1  0
 11 12  1  0
M  END
>  <id>  (92) 
3146

>  <casrn>  (92) 
2983-37-1

>  <smiles (First)>  (92) 


>  <Molecular weight>  (92) 
172.2646026611328

>  <name>  (92) 
ethyl 2-ethylhexanoate

>  <Outcome>  (92) 
1

>  <Molecule (RDKit Mol) (InChI Code)>  (92) 
InChI=1S/C10H20O2/c1-4-7-8-9(5-2)10(11)12-6-3/h9H,4-8H2,1-3H3

>  <reference>  (92) 
ECHA

>  <molecule_form>  (92) 
A

>  <ID>  (92) 


>  <SMILES>  (92) 
CCCCC(CC)C(=O)OCC

>  <ROMol>  (92) 
<rdkit.Chem.rdchem.Mol object at 0x0000027F78E2CB30>

$$$$

     RDKit          2D

  6  5  0  0  0  0  0  0  0  0999 V2000
    1.2375    2.1434    0.0000 C   0  0  0  0  0  0  0  0  0  0  0  0
    0.8250    1.4289    0.0000 C   0  0  0  0  0  0  0  0  0  0  0  0
    1.2375    0.7145    0.0000 C   0  0  0  0  0  0  0  0  0  0  0  0
    0.8250   -0.0000    0.0000 C   0  0  0  0  0  0  0  0  0  0  0  0
    1.2375   -0.7145    0.0000 C   0  0  0  0  0  0  0  0  0  0  0  0
   -0.0000   -0.0000    0.0000 O   0  0  0  0  0  0  0  0  0  0  0  0
  1  2  1  0
  2  3  1  0
  3  4  1  0
  4  5  1  0
  4  6  2  0
M  END
>  <id>  (93) 
3694

>  <casrn>  (93) 
107-87-9

>  <smiles (First)>  (93) 


>  <Molecular weight>  (93) 
86.1323013305664

>  <name>  (93) 
pentan-2-one

>  <Outcome>  (93) 
0

>  <Molecule (RDKit Mol) (InChI Code)>  (93) 
InChI=1S/C5H10O/c1-3-4-5(2)6/h3-4H2,1-2H3

>  <reference>  (93) 
ECHA

>  <molecule_form>  (93) 
V

>  <ID>  (93) 


>  <SMILES>  (93) 
CCCC(C)=O

>  <ROMol>  (93) 
<rdkit.Chem.rdchem.Mol object at 0x0000027F584D5430>

$$$$

     RDKit          2D

  8  8  0  0  0  0  0  0  0  0999 V2000
    1.4805    0.6325    0.0000 C   0  0  0  0  0  0  0  0  0  0  0  0
    0.7661    0.2200    0.0000 C   0  0  0  0  0  0  0  0  0  0  0  0
    0.0516    0.6325    0.0000 C   0  0  0  0  0  0  0  0  0  0  0  0
   -0.6629    0.2200    0.0000 C   0  0  0  0  0  0  0  0  0  0  0  0
   -0.6629   -0.6050    0.0000 C   0  0  0  0  0  0  0  0  0  0  0  0
   -1.3774   -1.0175    0.0000 Cl  0  0  0  0  0  0  0  0  0  0  0  0
    0.0516   -1.0175    0.0000 C   0  0  0  0  0  0  0  0  0  0  0  0
    0.7661   -0.6050    0.0000 C   0  0  0  0  0  0  0  0  0  0  0  0
  1  2  1  0
  3  2  2  0
  4  3  1  0
  5  4  2  0
  5  6  1  0
  7  5  1  0
  8  7  2  0
  2  8  1  0
M  END
>  <id>  (94) 
200993

>  <casrn>  (94) 
106-43-4

>  <smiles (First)>  (94) 
Cc1ccc(Cl)cc1

>  <Molecular weight>  (94) 
126.58348083496094

>  <name>  (94) 
4-Chlorotoluene

>  <Outcome>  (94) 
0

>  <Molecule (RDKit Mol) (InChI Code)>  (94) 
InChI=1S/C7H7Cl/c1-6-2-4-7(8)5-3-6/h2-5H,1H3

>  <reference>  (94) 
ToxValDB

>  <molecule_form>  (94) 
not specified

>  <ID>  (94) 


>  <SMILES>  (94) 
Cc1ccc(Cl)cc1

>  <ROMol>  (94) 
<rdkit.Chem.rdchem.Mol object at 0x0000027F62462890>

$$$$

     RDKit          2D

  7  7  0  0  0  0  0  0  0  0999 V2000
   -0.1491    2.3504    0.0000 O   0  0  0  0  0  0  0  0  0  0  0  0
    0.5654    1.9379    0.0000 C   0  0  0  0  0  0  0  0  0  0  0  0
    0.5654    1.1129    0.0000 C   0  0  0  0  0  0  0  0  0  0  0  0
    1.2329    0.6280    0.0000 C   0  0  0  0  0  0  0  0  0  0  0  0
    0.9779   -0.1566    0.0000 C   0  0  0  0  0  0  0  0  0  0  0  0
    0.1529   -0.1566    0.0000 C   0  0  0  0  0  0  0  0  0  0  0  0
   -0.1020    0.6280    0.0000 O   0  0  0  0  0  0  0  0  0  0  0  0
  1  2  1  0
  2  3  1  0
  3  4  2  0
  4  5  1  0
  5  6  2  0
  6  7  1  0
  3  7  1  0
M  END
>  <id>  (95) 
3225; 3221; 3223; 3224; 3222

>  <casrn>  (95) 
98-00-0

>  <smiles (First)>  (95) 


>  <Molecular weight>  (95) 
98.09994506835938

>  <name>  (95) 
furan-2-ylmethanol

>  <Outcome>  (95) 
1

>  <Molecule (RDKit Mol) (InChI Code)>  (95) 
InChI=1S/C5H6O2/c6-4-5-2-1-3-7-5/h1-3,6H,4H2

>  <reference>  (95) 
ECHA

>  <molecule_form>  (95) 
V

>  <ID>  (95) 


>  <SMILES>  (95) 
OCc1ccco1

>  <ROMol>  (95) 
<rdkit.Chem.rdchem.Mol object at 0x0000027F584D55F0>

$$$$

     RDKit          2D

 19 19  0  0  0  0  0  0  0  0999 V2000
    4.6845   -4.9825    0.0000 C   0  0  0  0  0  0  0  0  0  0  0  0
    5.3989   -4.5700    0.0000 C   0  0  0  0  0  0  0  0  0  0  0  0
    6.1134   -4.9825    0.0000 C   0  0  0  0  0  0  0  0  0  0  0  0
    6.8279   -4.5700    0.0000 C   0  0  0  0  0  0  0  0  0  0  0  0
    7.5424   -4.9825    0.0000 C   0  0  0  0  0  0  0  0  0  0  0  0
    8.2568   -4.5700    0.0000 C   0  0  0  0  0  0  0  0  0  0  0  0
    8.9713   -4.9825    0.0000 C   0  0  0  0  0  0  0  0  0  0  0  0
    9.6858   -4.5700    0.0000 C   0  0  0  0  0  0  0  0  0  0  0  0
   10.4002   -4.9825    0.0000 C   0  0  0  0  0  0  0  0  0  0  0  0
   11.1147   -4.5700    0.0000 C   0  0  0  0  0  0  0  0  0  0  0  0
   11.8292   -4.9825    0.0000 C   0  0  0  0  0  0  0  0  0  0  0  0
   12.5437   -4.5700    0.0000 C   0  0  0  0  0  0  0  0  0  0  0  0
   13.2581   -4.9825    0.0000 C   0  0  0  0  0  0  0  0  0  0  0  0
   14.0118   -4.6469    0.0000 C   0  0  0  0  0  0  0  0  0  0  0  0
   14.5638   -5.2600    0.0000 C   0  0  0  0  0  0  0  0  0  0  0  0
   15.3843   -5.1738    0.0000 O   0  0  0  0  0  0  0  0  0  0  0  0
   14.1513   -5.9745    0.0000 O   0  0  0  0  0  0  0  0  0  0  0  0
   13.3444   -5.8030    0.0000 C   0  0  0  0  0  0  0  0  0  0  0  0
   12.7313   -6.3550    0.0000 O   0  0  0  0  0  0  0  0  0  0  0  0
  1  2  1  0
  2  3  1  0
  3  4  1  0
  4  5  1  0
  5  6  1  0
  6  7  1  0
  7  8  1  0
  8  9  1  0
 10  9  1  0
 10 11  2  3
 11 12  1  0
 12 13  1  0
 13 14  1  0
 14 15  1  0
 15 16  2  0
 15 17  1  0
 17 18  1  0
 13 18  1  0
 18 19  2  0
M  END
>  <id>  (96) 
1763

>  <casrn>  (96) 
19780-11-1

>  <smiles (First)>  (96) 


>  <Molecular weight>  (96) 
266.3758544921875

>  <name>  (96) 
3-[(2E)-dodec-2-en-1-yl]oxolane-2,5-dione; 3-[(2Z)-dodec-2-en-1-yl]oxolane-2,5-dione

>  <Outcome>  (96) 
0

>  <Molecule (RDKit Mol) (InChI Code)>  (96) 
InChI=1S/C16H26O3/c1-2-3-4-5-6-7-8-9-10-11-12-14-13-15(17)19-16(14)18/h10-11,14H,2-9,12-13H2,1H3

>  <reference>  (96) 
ECHA

>  <molecule_form>  (96) 
A

>  <ID>  (96) 


>  <SMILES>  (96) 
CCCCCCCCCC=CCC1CC(=O)OC1=O

>  <ROMol>  (96) 
<rdkit.Chem.rdchem.Mol object at 0x0000027F584DE350>

$$$$

     RDKit          2D

  8  7  0  0  0  0  0  0  0  0999 V2000
    1.2531    2.2573    0.0000 C   0  0  0  0  0  0  0  0  0  0  0  0
    0.8406    1.5428    0.0000 C   0  0  0  0  0  0  0  0  0  0  0  0
    0.0156    1.5428    0.0000 C   0  0  0  0  0  0  0  0  0  0  0  0
    1.2531    0.8283    0.0000 C   0  0  0  0  0  0  0  0  0  0  0  0
    2.0781    0.8283    0.0000 N   0  0  0  0  0  0  0  0  0  0  0  0
    0.8406    0.1139    0.0000 C   0  0  0  0  0  0  0  0  0  0  0  0
    1.2531   -0.6006    0.0000 O   0  0  0  0  0  0  0  0  0  0  0  0
    0.0156    0.1139    0.0000 O   0  0  0  0  0  0  0  0  0  0  0  0
  1  2  1  0
  2  3  1  0
  2  4  1  0
  4  5  1  0
  4  6  1  0
  6  7  2  0
  6  8  1  0
M  END
>  <id>  (97) 
182

>  <casrn>  (97) 
72-18-4

>  <smiles (First)>  (97) 


>  <Molecular weight>  (97) 
117.1463394165039

>  <name>  (97) 
(2S)-2-amino-3-methylbutanoic acid

>  <Outcome>  (97) 
0

>  <Molecule (RDKit Mol) (InChI Code)>  (97) 
InChI=1S/C5H11NO2/c1-3(2)4(6)5(7)8/h3-4H,6H2,1-2H3,(H,7,8)

>  <reference>  (97) 
ECHA

>  <molecule_form>  (97) 
A

>  <ID>  (97) 


>  <SMILES>  (97) 
CC(C)C(N)C(=O)O

>  <ROMol>  (97) 
<rdkit.Chem.rdchem.Mol object at 0x0000027F58419580>

$$$$

     RDKit          2D

  3  2  0  0  0  0  0  0  0  0999 V2000
    2.1228   -1.5544    0.0000 C   0  0  0  0  0  0  0  0  0  0  0  0
    1.7103   -0.8399    0.0000 C   0  0  0  0  0  0  0  0  0  0  0  0
    0.8853   -0.8399    0.0000 O   0  0  0  0  0  0  0  0  0  0  0  0
  1  2  1  0
  2  3  1  0
M  END
>  <id>  (98) 
3128

>  <casrn>  (98) 
64-17-5

>  <smiles (First)>  (98) 


>  <Molecular weight>  (98) 
46.06843948364258

>  <name>  (98) 
ethanol

>  <Outcome>  (98) 
0

>  <Molecule (RDKit Mol) (InChI Code)>  (98) 
InChI=1S/C2H6O/c1-2-3/h3H,2H2,1H3

>  <reference>  (98) 
ECHA

>  <molecule_form>  (98) 
V

>  <ID>  (98) 


>  <SMILES>  (98) 
CCO

>  <ROMol>  (98) 
<rdkit.Chem.rdchem.Mol object at 0x0000027F624B1580>

$$$$

     RDKit          2D

 11 10  0  0  0  0  0  0  0  0999 V2000
    1.7605    1.8414    0.0000 C   0  0  0  0  0  0  0  0  0  0  0  0
    2.4750    1.4289    0.0000 C   0  0  0  0  0  0  0  0  0  0  0  0
    2.4750    0.6039    0.0000 C   0  0  0  0  0  0  0  0  0  0  0  0
    3.1895    1.8414    0.0000 C   0  0  0  0  0  0  0  0  0  0  0  0
    3.1895    2.6664    0.0000 O   0  0  0  0  0  0  0  0  0  0  0  0
    3.9039    1.4289    0.0000 O   0  0  0  0  0  0  0  0  0  0  0  0
    4.6184    1.8414    0.0000 C   0  0  0  0  0  0  0  0  0  0  0  0
    4.6184    2.6664    0.0000 O   0  0  0  0  0  0  0  0  0  0  0  0
    5.3329    1.4289    0.0000 C   0  0  0  0  0  0  0  0  0  0  0  0
    6.0474    1.8414    0.0000 C   0  0  0  0  0  0  0  0  0  0  0  0
    5.3329    0.6039    0.0000 C   0  0  0  0  0  0  0  0  0  0  0  0
  1  2  2  0
  2  3  1  0
  2  4  1  0
  4  5  2  0
  4  6  1  0
  6  7  1  0
  7  8  2  0
  7  9  1  0
  9 10  2  0
  9 11  1  0
M  END
>  <id>  (99) 
1653

>  <casrn>  (99) 
760-93-0

>  <smiles (First)>  (99) 


>  <Molecular weight>  (99) 
154.1632080078125

>  <name>  (99) 
2-methylprop-2-enoyl 2-methylprop-2-enoate

>  <Outcome>  (99) 
1

>  <Molecule (RDKit Mol) (InChI Code)>  (99) 
InChI=1S/C8H10O3/c1-5(2)7(9)11-8(10)6(3)4/h1,3H2,2,4H3

>  <reference>  (99) 
ECHA

>  <molecule_form>  (99) 
A

>  <ID>  (99) 


>  <SMILES>  (99) 
C=C(C)C(=O)OC(=O)C(=C)C

>  <ROMol>  (99) 
<rdkit.Chem.rdchem.Mol object at 0x0000027F62463D60>

$$$$

     RDKit          2D

 12 11  0  0  0  0  0  0  0  0999 V2000
    3.5211    2.8589    0.0000 C   0  0  0  0  0  0  0  0  0  0  0  0
    4.2355    3.2714    0.0000 C   0  0  0  0  0  0  0  0  0  0  0  0
    4.9500    2.8589    0.0000 C   0  0  0  0  0  0  0  0  0  0  0  0
    5.6645    3.2714    0.0000 C   0  0  0  0  0  0  0  0  0  0  0  0
    6.3789    2.8589    0.0000 C   0  0  0  0  0  0  0  0  0  0  0  0
    7.0934    3.2714    0.0000 C   0  0  0  0  0  0  0  0  0  0  0  0
    7.8079    2.8589    0.0000 C   0  0  0  0  0  0  0  0  0  0  0  0
    8.5224    3.2714    0.0000 C   0  0  0  0  0  0  0  0  0  0  0  0
    9.2368    2.8589    0.0000 C   0  0  0  0  0  0  0  0  0  0  0  0
    9.9513    3.2714    0.0000 C   0  0  0  0  0  0  0  0  0  0  0  0
   10.6658    2.8589    0.0000 C   0  0  0  0  0  0  0  0  0  0  0  0
   11.3802    3.2714    0.0000 C   0  0  0  0  0  0  0  0  0  0  0  0
  1  2  2  0
  2  3  1  0
  3  4  1  0
  4  5  1  0
  5  6  1  0
  6  7  1  0
  7  8  1  0
  8  9  1  0
  9 10  1  0
 10 11  1  0
 11 12  1  0
M  END
>  <id>  (100) 
3090; 3095

>  <casrn>  (100) 
112-41-4

>  <smiles (First)>  (100) 


>  <Molecular weight>  (100) 
168.3189697265625

>  <name>  (100) 
dodec-1-ene

>  <Outcome>  (100) 
0

>  <Molecule (RDKit Mol) (InChI Code)>  (100) 
InChI=1S/C12H24/c1-3-5-7-9-11-12-10-8-6-4-2/h3H,1,4-12H2,2H3

>  <reference>  (100) 
ECHA

>  <molecule_form>  (100) 
V

>  <ID>  (100) 


>  <SMILES>  (100) 
C=CCCCCCCCCCC

>  <ROMol>  (100) 
<rdkit.Chem.rdchem.Mol object at 0x0000027F62463B30>

$$$$

     RDKit          2D

 12 11  0  0  0  0  0  0  0  0999 V2000
   -0.7882   -0.7013    0.0000 C   0  0  0  0  0  0  0  0  0  0  0  0
   -0.0737   -1.1138    0.0000 Si  0  0  0  0  0  3  0  0  0  0  0  0
   -0.0737   -1.9388    0.0000 O   0  0  0  0  0  0  0  0  0  0  0  0
   -0.7882   -2.3513    0.0000 Si  0  0  0  0  0  4  0  0  0  0  0  0
   -1.5027   -2.7638    0.0000 C   0  0  0  0  0  0  0  0  0  0  0  0
   -0.3757   -3.0658    0.0000 C   0  0  0  0  0  0  0  0  0  0  0  0
   -1.2007   -1.6369    0.0000 C   0  0  0  0  0  0  0  0  0  0  0  0
    0.6407   -0.7013    0.0000 O   0  0  0  0  0  0  0  0  0  0  0  0
    0.6407    0.1237    0.0000 Si  0  0  0  0  0  4  0  0  0  0  0  0
    0.6407    0.9487    0.0000 C   0  0  0  0  0  0  0  0  0  0  0  0
    1.4657    0.1237    0.0000 C   0  0  0  0  0  0  0  0  0  0  0  0
   -0.1843    0.1237    0.0000 C   0  0  0  0  0  0  0  0  0  0  0  0
  1  2  1  0
  2  3  1  0
  3  4  1  0
  4  5  1  0
  4  6  1  0
  4  7  1  0
  2  8  1  0
  8  9  1  0
  9 10  1  0
  9 11  1  0
  9 12  1  0
M  RAD  1   2   2
M  END
>  <id>  (101) 
1252

>  <casrn>  (101) 
1873-88-7

>  <smiles (First)>  (101) 


>  <Molecular weight>  (101) 
221.4969482421875

>  <name>  (101) 
2,2,4,6,6-pentamethyl-3,5-dioxa-2,4,6-trisilaheptane

>  <Outcome>  (101) 
0

>  <Molecule (RDKit Mol) (InChI Code)>  (101) 
InChI=1S/C7H21O2Si3/c1-10(8-11(2,3)4)9-12(5,6)7/h1-7H3

>  <reference>  (101) 
ECHA

>  <molecule_form>  (101) 
V

>  <ID>  (101) 


>  <SMILES>  (101) 
C[Si](O[Si](C)(C)C)O[Si](C)(C)C

>  <ROMol>  (101) 
<rdkit.Chem.rdchem.Mol object at 0x0000027F584D56D0>

$$$$

     RDKit          2D

 11 11  0  0  0  0  0  0  0  0999 V2000
    1.1810    1.0907    0.0000 C   0  0  0  0  0  0  0  0  0  0  0  0
    0.4665    0.6782    0.0000 C   0  0  0  0  0  0  0  0  0  0  0  0
   -0.2480    1.0907    0.0000 C   0  0  0  0  0  0  0  0  0  0  0  0
   -0.9625    0.6782    0.0000 C   0  0  0  0  0  0  0  0  0  0  0  0
   -0.9625   -0.1468    0.0000 C   0  0  0  0  0  0  0  0  0  0  0  0
   -0.2480   -0.5593    0.0000 C   0  0  0  0  0  0  0  0  0  0  0  0
    0.4665   -0.1468    0.0000 C   0  0  0  0  0  0  0  0  0  0  0  0
   -1.6769   -0.5593    0.0000 C   0  0  0  0  0  0  0  0  0  0  0  0
   -2.3914   -0.9718    0.0000 C   0  0  0  0  0  0  0  0  0  0  0  0
   -2.0894    0.1551    0.0000 C   0  0  0  0  0  0  0  0  0  0  0  0
   -1.2644   -1.2738    0.0000 C   0  0  0  0  0  0  0  0  0  0  0  0
  1  2  1  0
  3  2  2  0
  4  3  1  0
  5  4  2  0
  6  5  1  0
  7  6  2  0
  5  8  1  0
  8  9  1  0
  8 10  1  0
  8 11  1  0
  2  7  1  0
M  END
>  <id>  (102) 
353878

>  <casrn>  (102) 
98-51-1

>  <smiles (First)>  (102) 
Cc1ccc(cc1)C(C)(C)C

>  <Molecular weight>  (102) 
148.2447509765625

>  <name>  (102) 
4-tert-Butyltoluene

>  <Outcome>  (102) 
1

>  <Molecule (RDKit Mol) (InChI Code)>  (102) 
InChI=1S/C11H16/c1-9-5-7-10(8-6-9)11(2,3)4/h5-8H,1-4H3

>  <reference>  (102) 
ToxValDB

>  <molecule_form>  (102) 
not specified

>  <ID>  (102) 


>  <SMILES>  (102) 
Cc1ccc(C(C)(C)C)cc1

>  <ROMol>  (102) 
<rdkit.Chem.rdchem.Mol object at 0x0000027F58444190>

$$$$

     RDKit          2D

 13 13  0  0  0  0  0  0  0  0999 V2000
    0.0234    2.4277    0.0000 C   0  0  0  0  0  0  0  0  0  0  0  0
    0.7378    2.0152    0.0000 O   0  0  0  0  0  0  0  0  0  0  0  0
    0.7378    1.1902    0.0000 C   0  0  0  0  0  0  0  0  0  0  0  0
    1.4523    0.7777    0.0000 C   0  0  0  0  0  0  0  0  0  0  0  0
    1.4523   -0.0473    0.0000 C   0  0  0  0  0  0  0  0  0  0  0  0
    0.7378   -0.4598    0.0000 C   0  0  0  0  0  0  0  0  0  0  0  0
    0.7378   -1.2848    0.0000 C   0  0  0  0  0  0  0  0  0  0  0  0
    1.4523   -1.6973    0.0000 C   0  0  0  0  0  0  0  0  0  0  0  0
    2.1668   -2.1098    0.0000 N   0  0  0  0  0  0  0  0  0  0  0  0
    0.0234   -0.0473    0.0000 C   0  0  0  0  0  0  0  0  0  0  0  0
    0.0234    0.7777    0.0000 C   0  0  0  0  0  0  0  0  0  0  0  0
   -0.6911    1.1902    0.0000 O   0  0  0  0  0  0  0  0  0  0  0  0
   -0.6911    2.0152    0.0000 C   0  0  0  0  0  0  0  0  0  0  0  0
  1  2  1  0
  2  3  1  0
  3  4  2  0
  4  5  1  0
  5  6  2  0
  6  7  1  0
  7  8  1  0
  8  9  3  0
  6 10  1  0
 10 11  2  0
  3 11  1  0
 11 12  1  0
 12 13  1  0
M  END
>  <id>  (103) 
185; 1327

>  <casrn>  (103) 
93-17-4

>  <smiles (First)>  (103) 


>  <Molecular weight>  (103) 
177.19984436035156

>  <name>  (103) 
(3,4-dimethoxyphenyl)acetonitrile

>  <Outcome>  (103) 
0

>  <Molecule (RDKit Mol) (InChI Code)>  (103) 
InChI=1S/C10H11NO2/c1-12-9-4-3-8(5-6-11)7-10(9)13-2/h3-4,7H,5H2,1-2H3

>  <reference>  (103) 
ECHA

>  <molecule_form>  (103) 
A

>  <ID>  (103) 


>  <SMILES>  (103) 
COc1ccc(CC#N)cc1OC

>  <ROMol>  (103) 
<rdkit.Chem.rdchem.Mol object at 0x0000027F5842F2E0>

$$$$

     RDKit          2D

  5  5  0  0  0  0  0  0  0  0999 V2000
    0.5660    1.1119    0.0000 C   0  0  0  0  0  0  0  0  0  0  0  0
    1.2335    0.6270    0.0000 C   0  0  0  0  0  0  0  0  0  0  0  0
    0.9785   -0.1576    0.0000 C   0  0  0  0  0  0  0  0  0  0  0  0
    0.1535   -0.1576    0.0000 S   0  0  0  0  0  0  0  0  0  0  0  0
   -0.1014    0.6270    0.0000 C   0  0  0  0  0  0  0  0  0  0  0  0
  1  2  1  0
  2  3  1  0
  3  4  1  0
  4  5  1  0
  1  5  1  0
M  END
>  <id>  (104) 
3988

>  <casrn>  (104) 
110-01-0

>  <smiles (First)>  (104) 


>  <Molecular weight>  (104) 
88.17131805419922

>  <name>  (104) 
thiolane

>  <Outcome>  (104) 
0

>  <Molecule (RDKit Mol) (InChI Code)>  (104) 
InChI=1S/C4H8S/c1-2-4-5-3-1/h1-4H2

>  <reference>  (104) 
ECHA

>  <molecule_form>  (104) 
V

>  <ID>  (104) 


>  <SMILES>  (104) 
C1CCSC1

>  <ROMol>  (104) 
<rdkit.Chem.rdchem.Mol object at 0x0000027F5846E2E0>

$$$$

     RDKit          2D

 10  9  0  0  0  0  0  0  0  0999 V2000
   -2.3349    1.1284    0.0000 C   0  0  0  0  0  0  0  0  0  0  0  0
   -1.6204    0.7159    0.0000 C   0  0  0  0  0  0  0  0  0  0  0  0
   -0.9059    1.1284    0.0000 C   0  0  0  0  0  0  0  0  0  0  0  0
   -0.1915    0.7159    0.0000 C   0  0  0  0  0  0  0  0  0  0  0  0
    0.5230    1.1284    0.0000 C   0  0  0  0  0  0  0  0  0  0  0  0
    1.2375    0.7159    0.0000 C   0  0  0  0  0  0  0  0  0  0  0  0
    1.9519    1.1284    0.0000 O   0  0  0  0  0  0  0  0  0  0  0  0
    2.6664    0.7159    0.0000 C   0  0  0  0  0  0  0  0  0  0  0  0
    3.3809    1.1284    0.0000 C   0  0  0  0  0  0  0  0  0  0  0  0
    2.6664   -0.1091    0.0000 O   0  0  0  0  0  0  0  0  0  0  0  0
  1  2  1  0
  3  2  1  0
  3  4  2  3
  4  5  1  0
  5  6  1  0
  6  7  1  0
  7  8  1  0
  8  9  1  0
  8 10  2  0
M  END
>  <id>  (105) 
202

>  <casrn>  (105) 
3681-71-8

>  <smiles (First)>  (105) 


>  <Molecular weight>  (105) 
142.195556640625

>  <name>  (105) 
(3Z)-hex-3-en-1-yl acetate

>  <Outcome>  (105) 
0

>  <Molecule (RDKit Mol) (InChI Code)>  (105) 
InChI=1S/C8H14O2/c1-3-4-5-6-7-10-8(2)9/h4-5H,3,6-7H2,1-2H3

>  <reference>  (105) 
ECHA

>  <molecule_form>  (105) 
A

>  <ID>  (105) 


>  <SMILES>  (105) 
CCC=CCCOC(C)=O

>  <ROMol>  (105) 
<rdkit.Chem.rdchem.Mol object at 0x0000027F583F4190>

$$$$

     RDKit          2D

  4  3  0  0  0  0  0  0  0  0999 V2000
    2.0609   -0.7173    0.0000 C   0  0  0  0  0  0  0  0  0  0  0  0
    1.2359   -0.7173    0.0000 C   0  0  0  0  0  0  0  0  0  0  0  0
    0.8234   -0.0028    0.0000 C   0  0  0  0  0  0  0  0  0  0  0  0
   -0.0016   -0.0028    0.0000 N   0  0  0  0  0  0  0  0  0  0  0  0
  1  2  2  0
  2  3  1  0
  3  4  1  0
M  END
>  <id>  (106) 
3765

>  <casrn>  (106) 
107-11-9

>  <smiles (First)>  (106) 


>  <Molecular weight>  (106) 
57.09437942504883

>  <name>  (106) 
prop-2-en-1-amine

>  <Outcome>  (106) 
1

>  <Molecule (RDKit Mol) (InChI Code)>  (106) 
InChI=1S/C3H7N/c1-2-3-4/h2H,1,3-4H2

>  <reference>  (106) 
ECHA

>  <molecule_form>  (106) 
V

>  <ID>  (106) 


>  <SMILES>  (106) 
C=CCN

>  <ROMol>  (106) 
<rdkit.Chem.rdchem.Mol object at 0x0000027F5C144510>

$$$$

     RDKit          2D

  9  8  0  0  0  0  0  0  0  0999 V2000
   -0.0001    0.5240    0.0000 C   0  0  0  0  0  0  0  0  0  0  0  0
    0.7144    0.1115    0.0000 C   0  0  0  0  0  0  0  0  0  0  0  0
    1.4288    0.5240    0.0000 C   0  0  0  0  0  0  0  0  0  0  0  0
    2.1433    0.1115    0.0000 C   0  0  0  0  0  0  0  0  0  0  0  0
    2.8578    0.5240    0.0000 O   0  0  0  0  0  0  0  0  0  0  0  0
    3.5723    0.1115    0.0000 C   0  0  0  0  0  0  0  0  0  0  0  0
    4.2867    0.5240    0.0000 C   0  0  0  0  0  0  0  0  0  0  0  0
    5.0012    0.1115    0.0000 C   0  0  0  0  0  0  0  0  0  0  0  0
    5.7157    0.5240    0.0000 C   0  0  0  0  0  0  0  0  0  0  0  0
  1  2  1  0
  2  3  1  0
  3  4  1  0
  4  5  1  0
  5  6  1  0
  6  7  1  0
  7  8  1  0
  8  9  1  0
M  END
>  <id>  (107) 
900922

>  <casrn>  (107) 
142-96-1

>  <smiles (First)>  (107) 
CCCCOCCCC

>  <Molecular weight>  (107) 
130.22792053222656

>  <name>  (107) 
Butyl ether

>  <Outcome>  (107) 
0

>  <Molecule (RDKit Mol) (InChI Code)>  (107) 
InChI=1S/C8H18O/c1-3-5-7-9-8-6-4-2/h3-8H2,1-2H3

>  <reference>  (107) 
ToxValDB

>  <molecule_form>  (107) 
not specified

>  <ID>  (107) 


>  <SMILES>  (107) 
CCCCOCCCC

>  <ROMol>  (107) 
<rdkit.Chem.rdchem.Mol object at 0x0000027F6244F7B0>

$$$$

     RDKit          2D

  8  7  0  0  0  0  0  0  0  0999 V2000
    1.0461   -2.2539    0.0000 N   0  0  0  0  0  0  0  0  0  0  0  0
    1.7605   -1.8414    0.0000 C   0  0  0  0  0  0  0  0  0  0  0  0
    2.4750   -1.4289    0.0000 C   0  0  0  0  0  0  0  0  0  0  0  0
    3.1895   -1.8414    0.0000 C   0  0  0  0  0  0  0  0  0  0  0  0
    3.9039   -1.4289    0.0000 C   0  0  0  0  0  0  0  0  0  0  0  0
    4.6184   -1.8414    0.0000 C   0  0  0  0  0  0  0  0  0  0  0  0
    5.3329   -1.4289    0.0000 C   0  0  0  0  0  0  0  0  0  0  0  0
    6.0474   -1.0164    0.0000 N   0  0  0  0  0  0  0  0  0  0  0  0
  1  2  3  0
  2  3  1  0
  3  4  1  0
  4  5  1  0
  5  6  1  0
  6  7  1  0
  7  8  3  0
M  END
>  <id>  (108) 
3324

>  <casrn>  (108) 
111-69-3

>  <smiles (First)>  (108) 


>  <Molecular weight>  (108) 
108.14112091064453

>  <name>  (108) 
hexanedinitrile

>  <Outcome>  (108) 
1

>  <Molecule (RDKit Mol) (InChI Code)>  (108) 
InChI=1S/C6H8N2/c7-5-3-1-2-4-6-8/h1-4H2

>  <reference>  (108) 
ECHA

>  <molecule_form>  (108) 
A

>  <ID>  (108) 


>  <SMILES>  (108) 
N#CCCCCC#N

>  <ROMol>  (108) 
<rdkit.Chem.rdchem.Mol object at 0x0000027F6246BE40>

$$$$

     RDKit          2D

  7  7  0  0  0  0  0  0  0  0999 V2000
    0.7145    2.0625    0.0000 Br  0  0  0  0  0  0  0  0  0  0  0  0
    0.7145    1.2375    0.0000 C   0  0  0  0  0  0  0  0  0  0  0  0
    1.4289    0.8250    0.0000 C   0  0  0  0  0  0  0  0  0  0  0  0
    1.4289    0.0000    0.0000 C   0  0  0  0  0  0  0  0  0  0  0  0
    0.7145   -0.4125    0.0000 C   0  0  0  0  0  0  0  0  0  0  0  0
   -0.0000    0.0000    0.0000 C   0  0  0  0  0  0  0  0  0  0  0  0
   -0.0000    0.8250    0.0000 C   0  0  0  0  0  0  0  0  0  0  0  0
  1  2  1  0
  2  3  2  0
  3  4  1  0
  4  5  2  0
  5  6  1  0
  6  7  2  0
  2  7  1  0
M  END
>  <id>  (109) 
2686

>  <casrn>  (109) 
108-86-1

>  <smiles (First)>  (109) 


>  <Molecular weight>  (109) 
157.00790405273438

>  <name>  (109) 
bromobenzene

>  <Outcome>  (109) 
0

>  <Molecule (RDKit Mol) (InChI Code)>  (109) 
InChI=1S/C6H5Br/c7-6-4-2-1-3-5-6/h1-5H

>  <reference>  (109) 
ECHA

>  <molecule_form>  (109) 
V

>  <ID>  (109) 


>  <SMILES>  (109) 
Brc1ccccc1

>  <ROMol>  (109) 
<rdkit.Chem.rdchem.Mol object at 0x0000027F5846EF90>

$$$$

     RDKit          2D

  2  1  0  0  0  0  0  0  0  0999 V2000
    0.8250    0.0000    0.0000 C   0  0  0  0  0  0  0  0  0  0  0  0
   -0.0000    0.0000    0.0000 O   0  0  0  0  0  0  0  0  0  0  0  0
  1  2  1  0
M  END
>  <id>  (110) 
3436; 3398

>  <casrn>  (110) 
67-56-1

>  <smiles (First)>  (110) 


>  <Molecular weight>  (110) 
31.537891387939453

>  <name>  (110) 
methanol

>  <Outcome>  (110) 
0

>  <Molecule (RDKit Mol) (InChI Code)>  (110) 
InChI=1S/CH4O/c1-2/h2H,1H3

>  <reference>  (110) 
ECHA

>  <molecule_form>  (110) 
V

>  <ID>  (110) 


>  <SMILES>  (110) 
CO

>  <ROMol>  (110) 
<rdkit.Chem.rdchem.Mol object at 0x0000027F624B17B0>

$$$$

     RDKit          2D

  3  2  0  0  0  0  0  0  0  0999 V2000
    2.8978   -1.9844    0.0000 O   0  0  0  0  0  0  0  0  0  0  0  0
    2.4853   -1.2699    0.0000 C   0  0  0  0  0  0  0  0  0  0  0  0
    1.6603   -1.2699    0.0000 O   0  0  0  0  0  0  0  0  0  0  0  0
  1  2  2  0
  2  3  1  0
M  END
>  <id>  (111) 
3215

>  <casrn>  (111) 
64-18-6

>  <smiles (First)>  (111) 


>  <Molecular weight>  (111) 
46.0253791809082

>  <name>  (111) 
formic acid

>  <Outcome>  (111) 
1

>  <Molecule (RDKit Mol) (InChI Code)>  (111) 
InChI=1S/CH2O2/c2-1-3/h1H,(H,2,3)

>  <reference>  (111) 
ECHA

>  <molecule_form>  (111) 
V

>  <ID>  (111) 


>  <SMILES>  (111) 
O=CO

>  <ROMol>  (111) 
<rdkit.Chem.rdchem.Mol object at 0x0000027F6246BF20>

$$$$

     RDKit          2D

  4  3  0  0  0  0  0  0  0  0999 V2000
    1.2375    0.7145    0.0000 C   0  0  0  0  0  0  0  0  0  0  0  0
    0.8250    0.0000    0.0000 C   0  0  0  0  0  0  0  0  0  0  0  0
    1.2375   -0.7145    0.0000 O   0  0  0  0  0  0  0  0  0  0  0  0
   -0.0000    0.0000    0.0000 O   0  0  0  0  0  0  0  0  0  0  0  0
  1  2  1  0
  2  3  2  0
  2  4  1  0
M  END
>  <id>  (112) 
2564

>  <casrn>  (112) 
64-19-7

>  <smiles (First)>  (112) 


>  <Molecular weight>  (112) 
60.05195999145508

>  <name>  (112) 
acetic acid

>  <Outcome>  (112) 
1

>  <Molecule (RDKit Mol) (InChI Code)>  (112) 
InChI=1S/C2H4O2/c1-2(3)4/h1H3,(H,3,4)

>  <reference>  (112) 
ECHA

>  <molecule_form>  (112) 
V

>  <ID>  (112) 


>  <SMILES>  (112) 
CC(=O)O

>  <ROMol>  (112) 
<rdkit.Chem.rdchem.Mol object at 0x0000027F585E2DD0>

$$$$

     RDKit          2D

  7  7  0  0  0  0  0  0  0  0999 V2000
   -0.1467    2.3518    0.0000 O   0  0  0  0  0  0  0  0  0  0  0  0
    0.5678    1.9393    0.0000 C   0  0  0  0  0  0  0  0  0  0  0  0
    0.5678    1.1143    0.0000 C   0  0  0  0  0  0  0  0  0  0  0  0
    1.2352    0.6294    0.0000 C   0  0  0  0  0  0  0  0  0  0  0  0
    0.9803   -0.1553    0.0000 C   0  0  0  0  0  0  0  0  0  0  0  0
    0.1553   -0.1553    0.0000 C   0  0  0  0  0  0  0  0  0  0  0  0
   -0.0997    0.6294    0.0000 O   0  0  0  0  0  0  0  0  0  0  0  0
  1  2  2  0
  2  3  1  0
  3  4  2  0
  4  5  1  0
  5  6  2  0
  6  7  1  0
  3  7  1  0
M  END
>  <id>  (113) 
3220

>  <casrn>  (113) 
98-01-1

>  <smiles (First)>  (113) 


>  <Molecular weight>  (113) 
96.08406066894531

>  <name>  (113) 
furan-2-carbaldehyde

>  <Outcome>  (113) 
1

>  <Molecule (RDKit Mol) (InChI Code)>  (113) 
InChI=1S/C5H4O2/c6-4-5-2-1-3-7-5/h1-4H

>  <reference>  (113) 
ECHA

>  <molecule_form>  (113) 
A

>  <ID>  (113) 


>  <SMILES>  (113) 
O=Cc1ccco1

>  <ROMol>  (113) 
<rdkit.Chem.rdchem.Mol object at 0x0000027F58905970>

$$$$

     RDKit          2D

 11 10  0  0  0  0  0  0  0  0999 V2000
   -2.2079    2.0998    0.0000 C   0  0  0  0  0  0  0  0  0  0  0  0
   -1.4934    1.6873    0.0000 C   0  0  0  0  0  0  0  0  0  0  0  0
   -1.4934    0.8623    0.0000 C   0  0  0  0  0  0  0  0  0  0  0  0
   -0.7790    2.0998    0.0000 C   0  0  0  0  0  0  0  0  0  0  0  0
   -0.7790    2.9248    0.0000 O   0  0  0  0  0  0  0  0  0  0  0  0
   -0.0645    1.6873    0.0000 O   0  0  0  0  0  0  0  0  0  0  0  0
    0.6500    2.0998    0.0000 C   0  0  0  0  0  0  0  0  0  0  0  0
    0.6500    2.9248    0.0000 O   0  0  0  0  0  0  0  0  0  0  0  0
    1.3644    1.6873    0.0000 C   0  0  0  0  0  0  0  0  0  0  0  0
    2.0789    2.0998    0.0000 C   0  0  0  0  0  0  0  0  0  0  0  0
    1.3644    0.8623    0.0000 C   0  0  0  0  0  0  0  0  0  0  0  0
  1  2  1  0
  2  3  1  0
  2  4  1  0
  4  5  2  0
  4  6  1  0
  6  7  1  0
  7  8  2  0
  7  9  1  0
  9 10  1  0
  9 11  1  0
M  END
>  <id>  (114) 
352875

>  <casrn>  (114) 
97-72-3

>  <smiles (First)>  (114) 
CC(C)C(=O)OC(=O)C(C)C

>  <Molecular weight>  (114) 
158.19496154785156

>  <name>  (114) 
Isobutyric anhydride

>  <Outcome>  (114) 
1

>  <Molecule (RDKit Mol) (InChI Code)>  (114) 
InChI=1S/C8H14O3/c1-5(2)7(9)11-8(10)6(3)4/h5-6H,1-4H3

>  <reference>  (114) 
ToxValDB

>  <molecule_form>  (114) 
not specified

>  <ID>  (114) 


>  <SMILES>  (114) 
CC(C)C(=O)OC(=O)C(C)C

>  <ROMol>  (114) 
<rdkit.Chem.rdchem.Mol object at 0x0000027F5BB49C10>

$$$$

     RDKit          2D

  7  6  0  0  0  0  0  0  0  0999 V2000
    1.7605    1.8414    0.0000 Cl  0  0  0  0  0  0  0  0  0  0  0  0
    2.4750    1.4289    0.0000 C   0  0  0  0  0  0  0  0  0  0  0  0
    3.1895    1.8414    0.0000 C   0  0  0  0  0  0  0  0  0  0  0  0
    3.9039    1.4289    0.0000 O   0  0  0  0  0  0  0  0  0  0  0  0
    4.6184    1.8414    0.0000 C   0  0  0  0  0  0  0  0  0  0  0  0
    5.3329    1.4289    0.0000 C   0  0  0  0  0  0  0  0  0  0  0  0
    6.0474    1.8414    0.0000 Cl  0  0  0  0  0  0  0  0  0  0  0  0
  1  2  1  0
  2  3  1  0
  3  4  1  0
  4  5  1  0
  5  6  1  0
  6  7  1  0
M  END
>  <id>  (115) 
1130; 1129; 1131; 1128

>  <casrn>  (115) 
111-44-4

>  <smiles (First)>  (115) 


>  <Molecular weight>  (115) 
143.01171875

>  <name>  (115) 
1-chloro-2-(2-chloroethoxy)ethane

>  <Outcome>  (115) 
1

>  <Molecule (RDKit Mol) (InChI Code)>  (115) 
InChI=1S/C4H8Cl2O/c5-1-3-7-4-2-6/h1-4H2

>  <reference>  (115) 
ECHA

>  <molecule_form>  (115) 
V

>  <ID>  (115) 


>  <SMILES>  (115) 
ClCCOCCCl

>  <ROMol>  (115) 
<rdkit.Chem.rdchem.Mol object at 0x0000027F78E37190>

$$$$

     RDKit          2D

 16 16  0  0  0  0  0  0  0  0999 V2000
    1.4290   -4.9490    0.0000 C   0  0  0  0  0  0  0  0  0  0  0  0
    2.1434   -5.3615    0.0000 C   0  0  0  0  0  0  0  0  0  0  0  0
    2.8579   -4.9490    0.0000 C   0  0  0  0  0  0  0  0  0  0  0  0
    3.5724   -5.3615    0.0000 C   0  0  0  0  0  0  0  0  0  0  0  0
    4.2868   -4.9490    0.0000 O   0  0  0  0  0  0  0  0  0  0  0  0
    5.0013   -5.3615    0.0000 C   0  0  0  0  0  0  0  0  0  0  0  0
    5.7158   -4.9490    0.0000 C   0  0  0  0  0  0  0  0  0  0  0  0
    6.4303   -5.3615    0.0000 O   0  0  0  0  0  0  0  0  0  0  0  0
    7.1447   -4.9490    0.0000 C   0  0  0  0  0  0  0  0  0  0  0  0
    7.1447   -4.1240    0.0000 O   0  0  0  0  0  0  0  0  0  0  0  0
    7.8592   -5.3615    0.0000 C   0  0  0  0  0  0  0  0  0  0  0  0
    8.5737   -4.9490    0.0000 C   0  0  0  0  0  0  0  0  0  0  0  0
    9.2881   -5.3615    0.0000 C   0  0  0  0  0  0  0  0  0  0  0  0
    9.2881   -6.1865    0.0000 C   0  0  0  0  0  0  0  0  0  0  0  0
    8.5737   -6.5990    0.0000 C   0  0  0  0  0  0  0  0  0  0  0  0
    7.8592   -6.1865    0.0000 C   0  0  0  0  0  0  0  0  0  0  0  0
  1  2  1  0
  2  3  1  0
  3  4  1  0
  4  5  1  0
  5  6  1  0
  6  7  1  0
  7  8  1  0
  8  9  1  0
  9 10  2  0
  9 11  1  0
 11 12  2  0
 12 13  1  0
 13 14  2  0
 14 15  1  0
 15 16  2  0
 11 16  1  0
M  END
>  <id>  (116) 
1426

>  <casrn>  (116) 
5451-76-3

>  <smiles (First)>  (116) 


>  <Molecular weight>  (116) 
222.2802276611328

>  <name>  (116) 
2-butoxyethyl benzoate

>  <Outcome>  (116) 
0

>  <Molecule (RDKit Mol) (InChI Code)>  (116) 
InChI=1S/C13H18O3/c1-2-3-9-15-10-11-16-13(14)12-7-5-4-6-8-12/h4-8H,2-3,9-11H2,1H3

>  <reference>  (116) 
ECHA

>  <molecule_form>  (116) 
A

>  <ID>  (116) 


>  <SMILES>  (116) 
CCCCOCCOC(=O)c1ccccc1

>  <ROMol>  (116) 
<rdkit.Chem.rdchem.Mol object at 0x0000027F583F4040>

$$$$

     RDKit          2D

 20 21  0  0  0  0  0  0  0  0999 V2000
    0.1272   -0.3971    0.0000 C   0  0  0  0  0  0  0  0  0  0  0  0
    0.8417   -0.8096    0.0000 C   0  0  0  0  0  0  0  0  0  0  0  0
    0.8417   -1.6346    0.0000 N   0  0  0  0  0  0  0  0  0  0  0  0
    1.5561   -2.0471    0.0000 C   0  0  0  0  0  0  0  0  0  0  0  0
    1.5561   -2.8721    0.0000 O   0  0  0  0  0  0  0  0  0  0  0  0
    2.2706   -1.6346    0.0000 N   0  0  0  0  0  0  0  0  0  0  0  0
    2.2706   -0.8096    0.0000 C   0  0  0  0  0  0  0  0  0  0  0  0
    2.9851   -0.3971    0.0000 C   0  0  0  0  0  0  0  0  0  0  0  0
    2.9851   -2.0471    0.0000 C   0  0  0  0  0  0  0  0  0  0  0  0
    2.9851   -2.8721    0.0000 C   0  0  0  0  0  0  0  0  0  0  0  0
    3.6996   -3.2846    0.0000 C   0  0  0  0  0  0  0  0  0  0  0  0
    4.4140   -2.8721    0.0000 C   0  0  0  0  0  0  0  0  0  0  0  0
    4.4140   -2.0471    0.0000 C   0  0  0  0  0  0  0  0  0  0  0  0
    3.6996   -1.6346    0.0000 C   0  0  0  0  0  0  0  0  0  0  0  0
    0.1272   -2.0471    0.0000 C   0  0  0  0  0  0  0  0  0  0  0  0
   -0.5873   -1.6346    0.0000 C   0  0  0  0  0  0  0  0  0  0  0  0
   -1.3017   -2.0471    0.0000 C   0  0  0  0  0  0  0  0  0  0  0  0
   -1.3017   -2.8721    0.0000 C   0  0  0  0  0  0  0  0  0  0  0  0
   -0.5873   -3.2846    0.0000 C   0  0  0  0  0  0  0  0  0  0  0  0
    0.1272   -2.8721    0.0000 C   0  0  0  0  0  0  0  0  0  0  0  0
  1  2  1  0
  2  3  1  0
  3  4  1  0
  4  5  2  0
  4  6  1  0
  6  7  1  0
  7  8  1  0
  6  9  1  0
 10  9  2  0
 11 10  1  0
 12 11  2  0
 13 12  1  0
 14 13  2  0
  3 15  1  0
 16 15  2  0
 17 16  1  0
 18 17  2  0
 19 18  1  0
 20 19  2  0
  9 14  1  0
 15 20  1  0
M  END
>  <id>  (117) 
335646

>  <casrn>  (117) 
85-98-3

>  <smiles (First)>  (117) 
CCN(C(=O)N(CC)c1ccccc1)c2ccccc2

>  <Molecular weight>  (117) 
268.353515625

>  <name>  (117) 
N,N-Diethylcarbanilide

>  <Outcome>  (117) 
0

>  <Molecule (RDKit Mol) (InChI Code)>  (117) 
InChI=1S/C17H20N2O/c1-3-18(15-11-7-5-8-12-15)17(20)19(4-2)16-13-9-6-10-14-16/h5-14H,3-4H2,1-2H3

>  <reference>  (117) 
ToxValDB

>  <molecule_form>  (117) 
not specified

>  <ID>  (117) 


>  <SMILES>  (117) 
CCN(C(=O)N(CC)c1ccccc1)c1ccccc1

>  <ROMol>  (117) 
<rdkit.Chem.rdchem.Mol object at 0x0000027F624626D0>

$$$$

     RDKit          2D

  9  8  0  0  0  0  0  0  0  0999 V2000
    2.8157    0.5779    0.0000 O   0  0  0  0  0  0  0  0  0  0  0  0
    2.1012    0.1654    0.0000 C   0  0  0  0  0  0  0  0  0  0  0  0
    1.3867    0.5779    0.0000 C   0  0  0  0  0  0  0  0  0  0  0  0
    0.6722    0.9904    0.0000 C   0  0  0  0  0  0  0  0  0  0  0  0
   -0.0422    0.5779    0.0000 O   0  0  0  0  0  0  0  0  0  0  0  0
    1.7992    1.2924    0.0000 C   0  0  0  0  0  0  0  0  0  0  0  0
    1.3867    2.0069    0.0000 O   0  0  0  0  0  0  0  0  0  0  0  0
    0.9742   -0.1366    0.0000 C   0  0  0  0  0  0  0  0  0  0  0  0
    0.1492   -0.1366    0.0000 O   0  0  0  0  0  0  0  0  0  0  0  0
  1  2  1  0
  2  3  1  0
  3  4  1  0
  4  5  1  0
  3  6  1  0
  6  7  1  0
  3  8  1  0
  8  9  1  0
M  END
>  <id>  (118) 
1268

>  <casrn>  (118) 
115-77-5

>  <smiles (First)>  (118) 


>  <Molecular weight>  (118) 
136.14637756347656

>  <name>  (118) 
2,2-bis(hydroxymethyl)propane-1,3-diol

>  <Outcome>  (118) 
0

>  <Molecule (RDKit Mol) (InChI Code)>  (118) 
InChI=1S/C5H12O4/c6-1-5(2-7,3-8)4-9/h6-9H,1-4H2

>  <reference>  (118) 
ECHA

>  <molecule_form>  (118) 
A

>  <ID>  (118) 


>  <SMILES>  (118) 
OCC(CO)(CO)CO

>  <ROMol>  (118) 
<rdkit.Chem.rdchem.Mol object at 0x0000027F78E2C0B0>

$$$$

     RDKit          2D

 12 11  0  0  0  0  0  0  0  0999 V2000
    1.9652    0.7944    0.0000 C   0  0  0  0  0  0  0  0  0  0  0  0
    1.5527    0.0800    0.0000 C   0  0  0  0  0  0  0  0  0  0  0  0
    0.7277    0.0800    0.0000 O   0  0  0  0  0  0  0  0  0  0  0  0
    0.3152   -0.6345    0.0000 C   0  0  0  0  0  0  0  0  0  0  0  0
   -0.5098   -0.6345    0.0000 C   0  0  0  0  0  0  0  0  0  0  0  0
   -0.9223    0.0800    0.0000 C   0  0  0  0  0  0  0  0  0  0  0  0
   -1.3348    0.7944    0.0000 N   0  0  0  0  0  0  0  0  0  0  0  0
   -0.9223   -1.3490    0.0000 C   0  0  0  0  0  0  0  0  0  0  0  0
   -1.7473   -1.3490    0.0000 O   0  0  0  0  0  0  0  0  0  0  0  0
   -0.5098   -2.0634    0.0000 O   0  0  0  0  0  0  0  0  0  0  0  0
   -0.9223   -2.7779    0.0000 C   0  0  0  0  0  0  0  0  0  0  0  0
   -0.5098   -3.4924    0.0000 C   0  0  0  0  0  0  0  0  0  0  0  0
  1  2  1  0
  2  3  1  0
  4  3  1  0
  4  5  2  3
  5  6  1  0
  6  7  3  0
  5  8  1  0
  8  9  2  0
  8 10  1  0
 10 11  1  0
 11 12  1  0
M  END
>  <id>  (119) 
349341

>  <casrn>  (119) 
94-05-3

>  <smiles (First)>  (119) 
CCO\C=C(C#N)/C(=O)OCC

>  <Molecular weight>  (119) 
169.17784118652344

>  <name>  (119) 
2-Propenoic acid, 2-cyano-3-ethoxy-, ethyl ester

>  <Outcome>  (119) 
0

>  <Molecule (RDKit Mol) (InChI Code)>  (119) 
InChI=1S/C8H11NO3/c1-3-11-6-7(5-9)8(10)12-4-2/h6H,3-4H2,1-2H3

>  <reference>  (119) 
ToxValDB

>  <molecule_form>  (119) 
not specified

>  <ID>  (119) 


>  <SMILES>  (119) 
CCOC=C(C#N)C(=O)OCC

>  <ROMol>  (119) 
<rdkit.Chem.rdchem.Mol object at 0x0000027F5BB49900>

$$$$

     RDKit          2D

  5  4  0  0  0  0  0  0  0  0999 V2000
    0.8214    1.4289    0.0000 C   0  0  0  0  0  0  0  0  0  0  0  0
    1.2339    0.7145    0.0000 C   0  0  0  0  0  0  0  0  0  0  0  0
    0.8214   -0.0000    0.0000 C   0  0  0  0  0  0  0  0  0  0  0  0
    1.2339   -0.7145    0.0000 O   0  0  0  0  0  0  0  0  0  0  0  0
   -0.0036   -0.0000    0.0000 Cl  0  0  0  0  0  0  0  0  0  0  0  0
  1  2  1  0
  2  3  1  0
  3  4  2  0
  3  5  1  0
M  END
>  <id>  (120) 
3808

>  <casrn>  (120) 
79-03-8

>  <smiles (First)>  (120) 


>  <Molecular weight>  (120) 
92.52420043945312

>  <name>  (120) 
propanoyl chloride

>  <Outcome>  (120) 
1

>  <Molecule (RDKit Mol) (InChI Code)>  (120) 
InChI=1S/C3H5ClO/c1-2-3(4)5/h2H2,1H3

>  <reference>  (120) 
ECHA

>  <molecule_form>  (120) 
V

>  <ID>  (120) 


>  <SMILES>  (120) 
CCC(=O)Cl

>  <ROMol>  (120) 
<rdkit.Chem.rdchem.Mol object at 0x0000027F5C149350>

$$$$

     RDKit          2D

 12 11  0  0  0  0  0  0  0  0999 V2000
   -0.6918   -0.6485    0.0000 C   0  0  0  0  0  0  0  0  0  0  0  0
    0.0227   -1.0610    0.0000 C   0  0  0  0  0  0  0  0  0  0  0  0
    0.0227   -1.8860    0.0000 C   0  0  0  0  0  0  0  0  0  0  0  0
   -0.6918   -2.2985    0.0000 C   0  0  0  0  0  0  0  0  0  0  0  0
   -1.4062   -2.7110    0.0000 C   0  0  0  0  0  0  0  0  0  0  0  0
   -0.2793   -3.0130    0.0000 C   0  0  0  0  0  0  0  0  0  0  0  0
   -1.1043   -1.5840    0.0000 C   0  0  0  0  0  0  0  0  0  0  0  0
    0.7372   -0.6485    0.0000 C   0  0  0  0  0  0  0  0  0  0  0  0
    0.7372    0.1765    0.0000 C   0  0  0  0  0  0  0  0  0  0  0  0
    0.7372    1.0015    0.0000 C   0  0  0  0  0  0  0  0  0  0  0  0
    1.5622    0.1765    0.0000 C   0  0  0  0  0  0  0  0  0  0  0  0
   -0.0878    0.1765    0.0000 C   0  0  0  0  0  0  0  0  0  0  0  0
  1  2  1  0
  2  3  1  0
  3  4  1  0
  4  5  1  0
  4  6  1  0
  4  7  1  0
  2  8  1  0
  8  9  1  0
  9 10  1  0
  9 11  1  0
  9 12  1  0
M  END
>  <id>  (121) 
1256; 1257; 1261; 1259; 1255

>  <casrn>  (121) 
13475-82-6

>  <smiles (First)>  (121) 


>  <Molecular weight>  (121) 
170.33483886718753

>  <name>  (121) 
2,2,4,6,6-pentamethylheptane

>  <Outcome>  (121) 
0

>  <Molecule (RDKit Mol) (InChI Code)>  (121) 
InChI=1S/C12H26/c1-10(8-11(2,3)4)9-12(5,6)7/h10H,8-9H2,1-7H3

>  <reference>  (121) 
ECHA

>  <molecule_form>  (121) 
V; A

>  <ID>  (121) 


>  <SMILES>  (121) 
CC(CC(C)(C)C)CC(C)(C)C

>  <ROMol>  (121) 
<rdkit.Chem.rdchem.Mol object at 0x0000027F584DE9E0>

$$$$

     RDKit          2D

  8  7  0  0  0  0  0  0  0  0999 V2000
    3.1271   -0.7437    0.0000 C   0  0  0  0  0  0  0  0  0  0  0  0
    2.7146   -0.0292    0.0000 C   0  0  0  0  0  0  0  0  0  0  0  0
    3.1271    0.6853    0.0000 C   0  0  0  0  0  0  0  0  0  0  0  0
    1.8896   -0.0292    0.0000 C   0  0  0  0  0  0  0  0  0  0  0  0
    1.8896    0.7958    0.0000 C   0  0  0  0  0  0  0  0  0  0  0  0
    1.8896   -0.8542    0.0000 N   0  0  0  0  0  0  0  0  0  0  0  0
    1.0646   -0.0292    0.0000 C   0  0  0  0  0  0  0  0  0  0  0  0
    0.2396   -0.0292    0.0000 N   0  0  0  0  0  0  0  0  0  0  0  0
  1  2  1  0
  2  3  1  0
  2  4  1  0
  4  5  1  0
  4  6  1  0
  4  7  1  0
  7  8  3  0
M  END
>  <id>  (122) 
589

>  <casrn>  (122) 
13893-53-3

>  <smiles (First)>  (122) 


>  <Molecular weight>  (122) 
112.17288208007812

>  <name>  (122) 
-

>  <Outcome>  (122) 
1

>  <Molecule (RDKit Mol) (InChI Code)>  (122) 
InChI=1S/C6H12N2/c1-5(2)6(3,8)4-7/h5H,8H2,1-3H3

>  <reference>  (122) 
ECHA

>  <molecule_form>  (122) 
V

>  <ID>  (122) 


>  <SMILES>  (122) 
CC(C)C(C)(N)C#N

>  <ROMol>  (122) 
<rdkit.Chem.rdchem.Mol object at 0x0000027F6246BC80>

$$$$

     RDKit          2D

  4  3  0  0  0  0  0  0  0  0999 V2000
    1.3009    0.7972    0.0000 C   0  0  0  0  0  0  0  0  0  0  0  0
    0.8884    0.0827    0.0000 C   0  0  0  0  0  0  0  0  0  0  0  0
    1.3009   -0.6318    0.0000 C   0  0  0  0  0  0  0  0  0  0  0  0
    0.0634    0.0827    0.0000 N   0  0  0  0  0  0  0  0  0  0  0  0
  1  2  1  0
  2  3  1  0
  2  4  1  0
M  END
>  <id>  (123) 
3790; 3791

>  <casrn>  (123) 
75-31-0

>  <smiles (First)>  (123) 


>  <Molecular weight>  (123) 
59.110260009765625

>  <name>  (123) 
propan-2-amine

>  <Outcome>  (123) 
1

>  <Molecule (RDKit Mol) (InChI Code)>  (123) 
InChI=1S/C3H9N/c1-3(2)4/h3H,4H2,1-2H3

>  <reference>  (123) 
ECHA

>  <molecule_form>  (123) 
V

>  <ID>  (123) 


>  <SMILES>  (123) 
CC(C)N

>  <ROMol>  (123) 
<rdkit.Chem.rdchem.Mol object at 0x0000027F624DD9E0>

$$$$

     RDKit          2D

  7  6  0  0  0  0  0  0  0  0999 V2000
   -0.4707    0.6758    0.0000 C   0  0  0  0  0  0  0  0  0  0  0  0
    0.2438    1.0883    0.0000 C   0  0  0  0  0  0  0  0  0  0  0  0
    0.2438    1.9133    0.0000 C   0  0  0  0  0  0  0  0  0  0  0  0
    0.9582    0.6758    0.0000 C   0  0  0  0  0  0  0  0  0  0  0  0
    1.6727    1.0883    0.0000 O   0  0  0  0  0  0  0  0  0  0  0  0
    2.3872    0.6758    0.0000 C   0  0  0  0  0  0  0  0  0  0  0  0
    3.1016    1.0883    0.0000 C   0  0  0  0  0  0  0  0  0  0  0  0
  1  2  1  0
  2  3  1  0
  2  4  1  0
  4  5  1  0
  5  6  1  0
  6  7  2  0
M  END
>  <id>  (124) 
205273; 901226

>  <casrn>  (124) 
109-53-5

>  <smiles (First)>  (124) 
CC(C)COC=C

>  <Molecular weight>  (124) 
100.15888214111328

>  <name>  (124) 
Vinyl isobutyl ether

>  <Outcome>  (124) 
0

>  <Molecule (RDKit Mol) (InChI Code)>  (124) 
InChI=1S/C6H12O/c1-4-7-5-6(2)3/h4,6H,1,5H2,2-3H3

>  <reference>  (124) 
ToxValDB

>  <molecule_form>  (124) 
not specified

>  <ID>  (124) 


>  <SMILES>  (124) 
C=COCC(C)C

>  <ROMol>  (124) 
<rdkit.Chem.rdchem.Mol object at 0x0000027F624620B0>

$$$$

     RDKit          2D

  3  2  0  0  0  0  0  0  0  0999 V2000
    2.5936   -0.9862    0.0000 C   0  0  0  0  0  0  0  0  0  0  0  0
    2.1811   -0.2717    0.0000 S   0  0  0  0  0  0  0  0  0  0  0  0
    1.3561   -0.2717    0.0000 C   0  0  0  0  0  0  0  0  0  0  0  0
  1  2  1  0
  2  3  1  0
M  END
>  <id>  (125) 
225

>  <casrn>  (125) 
75-18-3

>  <smiles (First)>  (125) 


>  <Molecular weight>  (125) 
62.13404083251953

>  <name>  (125) 
(methylsulfanyl)methane

>  <Outcome>  (125) 
0

>  <Molecule (RDKit Mol) (InChI Code)>  (125) 
InChI=1S/C2H6S/c1-3-2/h1-2H3

>  <reference>  (125) 
ECHA

>  <molecule_form>  (125) 
V

>  <ID>  (125) 


>  <SMILES>  (125) 
CSC

>  <ROMol>  (125) 
<rdkit.Chem.rdchem.Mol object at 0x0000027F5846E970>

$$$$

     RDKit          2D

 11 11  0  0  0  0  0  0  0  0999 V2000
    1.5633    0.5533    0.0000 N   0  0  0  0  0  0  0  0  0  0  0  0
    0.8488    0.1408    0.0000 C   0  0  0  0  0  0  0  0  0  0  0  0
    0.1343    0.5533    0.0000 C   0  0  0  0  0  0  0  0  0  0  0  0
   -0.5801    0.1408    0.0000 C   0  0  0  0  0  0  0  0  0  0  0  0
   -0.5801   -0.6842    0.0000 C   0  0  0  0  0  0  0  0  0  0  0  0
    0.1343   -1.0967    0.0000 C   0  0  0  0  0  0  0  0  0  0  0  0
    0.8488   -0.6842    0.0000 C   0  0  0  0  0  0  0  0  0  0  0  0
    1.5633   -1.0967    0.0000 O   0  0  0  0  0  0  0  0  0  0  0  0
   -1.2946    0.5533    0.0000 N   0  0  0  0  0  0  0  0  0  0  0  0
   -2.0091    0.1408    0.0000 O   0  0  0  0  0  0  0  0  0  0  0  0
   -1.2946    1.3783    0.0000 O   0  0  0  0  0  0  0  0  0  0  0  0
  1  2  1  0
  3  2  2  0
  4  3  1  0
  5  4  2  0
  6  5  1  0
  7  6  2  0
  7  8  1  0
  4  9  1  0
  9 10  1  0
  9 11  2  0
  2  7  1  0
M  CHG  2   9   1  10  -1
M  END
>  <id>  (126) 
354688

>  <casrn>  (126) 
99-57-0

>  <smiles (First)>  (126) 
Nc1cc(ccc1O)[N+]([O-])=O

>  <Molecular weight>  (126) 
154.12344360351562

>  <name>  (126) 
2-Amino-4-nitrophenol

>  <Outcome>  (126) 
0

>  <Molecule (RDKit Mol) (InChI Code)>  (126) 
InChI=1S/C6H6N2O3/c7-5-3-4(8(10)11)1-2-6(5)9/h1-3,9H,7H2

>  <reference>  (126) 
ToxValDB

>  <molecule_form>  (126) 
not specified

>  <ID>  (126) 


>  <SMILES>  (126) 
Nc1cc([N+](=O)[O-])ccc1O

>  <ROMol>  (126) 
<rdkit.Chem.rdchem.Mol object at 0x0000027F58444C80>

$$$$

     RDKit          2D

 64 66  0  0  0  0  0  0  0  0999 V2000
    4.3212  -11.5244    0.0000 C   0  0  0  0  0  0  0  0  0  0  0  0
    3.6067  -11.1119    0.0000 C   0  0  0  0  0  0  0  0  0  0  0  0
    2.8923  -11.5244    0.0000 C   0  0  0  0  0  0  0  0  0  0  0  0
    2.8923  -12.3494    0.0000 N   0  0  0  0  0  0  0  0  0  0  0  0
    2.1778  -12.7619    0.0000 C   0  0  0  0  0  0  0  0  0  0  0  0
    1.4633  -12.3494    0.0000 O   0  0  0  0  0  0  0  0  0  0  0  0
    2.1778  -13.5869    0.0000 N   0  0  0  0  0  0  0  0  0  0  0  0
    1.4633  -13.9994    0.0000 C   0  0  0  0  0  0  0  0  0  0  0  0
    1.4633  -14.8244    0.0000 C   0  0  0  0  0  0  0  0  0  0  0  0
    2.1778  -15.2369    0.0000 C   0  0  0  0  0  0  0  0  0  0  0  0
    2.1778  -16.0619    0.0000 C   0  0  0  0  0  0  0  0  0  0  0  0
    1.4633  -16.4744    0.0000 C   0  0  0  0  0  0  0  0  0  0  0  0
    0.7489  -16.0619    0.0000 C   0  0  0  0  0  0  0  0  0  0  0  0
    0.0344  -16.4744    0.0000 C   0  0  0  0  0  0  0  0  0  0  0  0
    0.0344  -17.2994    0.0000 N   0  0  0  0  0  0  0  0  0  0  0  0
   -0.6801  -17.7119    0.0000 C   0  0  0  0  0  0  0  0  0  0  0  0
   -1.3946  -17.2994    0.0000 O   0  0  0  0  0  0  0  0  0  0  0  0
   -0.6801  -18.5369    0.0000 N   0  0  0  0  0  0  0  0  0  0  0  0
   -1.3946  -18.9494    0.0000 C   0  0  0  0  0  0  0  0  0  0  0  0
   -1.3946  -19.7744    0.0000 C   0  0  0  0  0  0  0  0  0  0  0  0
   -2.1090  -20.1869    0.0000 C   0  0  0  0  0  0  0  0  0  0  0  0
   -2.8235  -19.7744    0.0000 C   0  0  0  0  0  0  0  0  0  0  0  0
   -2.8235  -18.9494    0.0000 C   0  0  0  0  0  0  0  0  0  0  0  0
   -3.5380  -18.5369    0.0000 N   0  0  0  0  0  0  0  0  0  0  0  0
   -4.2524  -18.9494    0.0000 C   0  0  0  0  0  0  0  0  0  0  0  0
   -4.2524  -19.7744    0.0000 O   0  0  0  0  0  0  0  0  0  0  0  0
   -4.9669  -18.5369    0.0000 O   0  0  0  0  0  0  0  0  0  0  0  0
   -5.6814  -18.9494    0.0000 C   0  0  0  0  0  0  0  0  0  0  0  0
   -6.3959  -18.5369    0.0000 C   0  0  0  0  0  0  0  0  0  0  0  0
   -7.1103  -18.9494    0.0000 C   0  0  0  0  0  0  0  0  0  0  0  0
   -7.8248  -18.5369    0.0000 C   0  0  0  0  0  0  0  0  0  0  0  0
   -8.5393  -18.9494    0.0000 C   0  0  0  0  0  0  0  0  0  0  0  0
   -9.2537  -18.5369    0.0000 C   0  0  0  0  0  0  0  0  0  0  0  0
   -9.9682  -18.9494    0.0000 C   0  0  0  0  0  0  0  0  0  0  0  0
  -10.6827  -18.5369    0.0000 C   0  0  0  0  0  0  0  0  0  0  0  0
  -11.3972  -18.9494    0.0000 C   0  0  0  0  0  0  0  0  0  0  0  0
  -12.1116  -18.5369    0.0000 C   0  0  0  0  0  0  0  0  0  0  0  0
  -12.8261  -18.9494    0.0000 C   0  0  0  0  0  0  0  0  0  0  0  0
  -13.5406  -18.5369    0.0000 C   0  0  0  0  0  0  0  0  0  0  0  0
  -12.8261  -19.7744    0.0000 C   0  0  0  0  0  0  0  0  0  0  0  0
   -2.1090  -18.5369    0.0000 C   0  0  0  0  0  0  0  0  0  0  0  0
   -2.1090  -17.7119    0.0000 C   0  0  0  0  0  0  0  0  0  0  0  0
    0.7489  -15.2369    0.0000 C   0  0  0  0  0  0  0  0  0  0  0  0
    2.1778  -11.1119    0.0000 C   0  0  0  0  0  0  0  0  0  0  0  0
    2.1778  -10.2869    0.0000 C   0  0  0  0  0  0  0  0  0  0  0  0
    2.8923   -9.8744    0.0000 C   0  0  0  0  0  0  0  0  0  0  0  0
    3.6067  -10.2869    0.0000 C   0  0  0  0  0  0  0  0  0  0  0  0
    4.3212   -9.8744    0.0000 N   0  0  0  0  0  0  0  0  0  0  0  0
    5.0357  -10.2869    0.0000 C   0  0  0  0  0  0  0  0  0  0  0  0
    5.0357  -11.1119    0.0000 O   0  0  0  0  0  0  0  0  0  0  0  0
    5.7501   -9.8744    0.0000 O   0  0  0  0  0  0  0  0  0  0  0  0
    6.4646  -10.2869    0.0000 C   0  0  0  0  0  0  0  0  0  0  0  0
    7.1791   -9.8744    0.0000 C   0  0  0  0  0  0  0  0  0  0  0  0
    7.8936  -10.2869    0.0000 C   0  0  0  0  0  0  0  0  0  0  0  0
    8.6080   -9.8744    0.0000 C   0  0  0  0  0  0  0  0  0  0  0  0
    9.3225  -10.2869    0.0000 C   0  0  0  0  0  0  0  0  0  0  0  0
   10.0370   -9.8744    0.0000 C   0  0  0  0  0  0  0  0  0  0  0  0
   10.7514  -10.2869    0.0000 C   0  0  0  0  0  0  0  0  0  0  0  0
   11.4659   -9.8744    0.0000 C   0  0  0  0  0  0  0  0  0  0  0  0
   12.1804  -10.2869    0.0000 C   0  0  0  0  0  0  0  0  0  0  0  0
   12.8949   -9.8744    0.0000 C   0  0  0  0  0  0  0  0  0  0  0  0
   13.6093  -10.2869    0.0000 C   0  0  0  0  0  0  0  0  0  0  0  0
   14.3238   -9.8744    0.0000 C   0  0  0  0  0  0  0  0  0  0  0  0
   13.6093  -11.1119    0.0000 C   0  0  0  0  0  0  0  0  0  0  0  0
  1  2  1  0
  2  3  2  0
  3  4  1  0
  4  5  1  0
  5  6  2  0
  5  7  1  0
  7  8  1  0
  8  9  1  0
  9 10  2  0
 10 11  1  0
 11 12  2  0
 12 13  1  0
 13 14  1  0
 14 15  1  0
 15 16  1  0
 16 17  2  0
 16 18  1  0
 18 19  1  0
 19 20  2  0
 20 21  1  0
 21 22  2  0
 22 23  1  0
 23 24  1  0
 24 25  1  0
 25 26  2  0
 25 27  1  0
 27 28  1  0
 28 29  1  0
 29 30  1  0
 30 31  1  0
 31 32  1  0
 32 33  1  0
 33 34  1  0
 34 35  1  0
 35 36  1  0
 36 37  1  0
 37 38  1  0
 38 39  1  0
 38 40  1  0
 23 41  2  0
 19 41  1  0
 41 42  1  0
 13 43  2  0
  9 43  1  0
  3 44  1  0
 44 45  2  0
 45 46  1  0
 46 47  2  0
  2 47  1  0
 47 48  1  0
 48 49  1  0
 49 50  2  0
 49 51  1  0
 51 52  1  0
 52 53  1  0
 53 54  1  0
 54 55  1  0
 55 56  1  0
 56 57  1  0
 57 58  1  0
 58 59  1  0
 59 60  1  0
 60 61  1  0
 61 62  1  0
 62 63  1  0
 62 64  1  0
M  END
>  <id>  (127) 
4311

>  <casrn>  (127) 
865536-03-4

>  <smiles (First)>  (127) 


>  <Molecular weight>  (127) 
885.2282104492188

>  <name>  (127) 
unnamed [865536-03-4]

>  <Outcome>  (127) 
0

>  <Molecule (RDKit Mol) (InChI Code)>  (127) 
InChI=1S/C52H80N6O6/c1-39(2)26-19-15-11-7-9-13-17-21-34-63-51(61)57-47-32-24-30-45(41(47)5)55-49(59)53-37-43-28-23-29-44(36-43)38-54-50(60)56-46-31-25-33-48(42(46)6)58-52(62)64-35-22-18-14-10-8-12-16-20-27-40(3)4/h23-25,28-33,36,39-40H,7-22,26-27,34-35,37-38H2,1-6H3,(H,57,61)(H,58,62)(H2,53,55,59)(H2,54,56,60)

>  <reference>  (127) 
ECHA

>  <molecule_form>  (127) 
A

>  <ID>  (127) 


>  <SMILES>  (127) 
Cc1c(NC(=O)NCc2cccc(CNC(=O)Nc3cccc(NC(=O)OCCCCCCCCCCC(C)C)c3C)c2)cccc1NC(=O)OCCCCCCCCCCC(C)C

>  <ROMol>  (127) 
<rdkit.Chem.rdchem.Mol object at 0x0000027F5C144F20>

$$$$

     RDKit          2D

 30 32  0  0  0  0  0  0  0  0999 V2000
    0.0641   -4.9672    0.0000 C   0  0  0  0  0  0  0  0  0  0  0  0
    0.7786   -5.3797    0.0000 O   0  0  0  0  0  0  0  0  0  0  0  0
    0.7786   -6.2047    0.0000 C   0  0  0  0  0  0  0  0  0  0  0  0
    1.4931   -6.6172    0.0000 C   0  0  0  0  0  0  0  0  0  0  0  0
    1.4931   -7.4422    0.0000 C   0  0  0  0  0  0  0  0  0  0  0  0
    0.7786   -7.8547    0.0000 C   0  0  0  0  0  0  0  0  0  0  0  0
    0.7786   -8.6797    0.0000 N   0  0  0  0  0  0  0  0  0  0  0  0
    1.4931   -9.0922    0.0000 N   0  0  0  0  0  0  0  0  0  0  0  0
    1.4931   -9.9172    0.0000 C   0  0  0  0  0  0  0  0  0  0  0  0
    2.2076  -10.3297    0.0000 C   0  0  0  0  0  0  0  0  0  0  0  0
    2.2076  -11.1547    0.0000 C   0  0  0  0  0  0  0  0  0  0  0  0
    1.4931  -11.5672    0.0000 C   0  0  0  0  0  0  0  0  0  0  0  0
    1.4931  -12.3922    0.0000 N   0  0  0  0  0  0  0  0  0  0  0  0
    0.7786  -12.8047    0.0000 N   0  0  0  0  0  0  0  0  0  0  0  0
    0.7786  -13.6297    0.0000 C   0  0  0  0  0  0  0  0  0  0  0  0
    1.4931  -14.0422    0.0000 C   0  0  0  0  0  0  0  0  0  0  0  0
    1.4931  -14.8672    0.0000 C   0  0  0  0  0  0  0  0  0  0  0  0
    0.7786  -15.2797    0.0000 C   0  0  0  0  0  0  0  0  0  0  0  0
    0.0641  -14.8672    0.0000 C   0  0  0  0  0  0  0  0  0  0  0  0
   -0.6503  -15.2797    0.0000 S   0  0  0  0  0  0  0  0  0  0  0  0
   -1.3648  -15.6922    0.0000 O   0  0  0  0  0  0  0  0  0  0  0  0
   -1.0628  -14.5652    0.0000 O   0  0  0  0  0  0  0  0  0  0  0  0
   -0.2378  -15.9942    0.0000 O   0  0  0  0  0  0  0  0  0  0  0  0
    0.0641  -14.0422    0.0000 C   0  0  0  0  0  0  0  0  0  0  0  0
    0.7786  -11.1547    0.0000 C   0  0  0  0  0  0  0  0  0  0  0  0
    0.7786  -10.3297    0.0000 C   0  0  0  0  0  0  0  0  0  0  0  0
    0.0641   -9.9172    0.0000 O   0  0  0  0  0  0  0  0  0  0  0  0
    0.0641   -9.0922    0.0000 C   0  0  0  0  0  0  0  0  0  0  0  0
    0.0641   -7.4422    0.0000 C   0  0  0  0  0  0  0  0  0  0  0  0
    0.0641   -6.6172    0.0000 C   0  0  0  0  0  0  0  0  0  0  0  0
  1  2  1  0
  2  3  1  0
  3  4  2  0
  4  5  1  0
  5  6  2  0
  7  6  1  0
  7  8  2  3
  8  9  1  0
  9 10  2  0
 10 11  1  0
 11 12  2  0
 13 12  1  0
 13 14  2  3
 14 15  1  0
 15 16  2  0
 16 17  1  0
 17 18  2  0
 18 19  1  0
 19 20  1  0
 20 21  2  0
 20 22  2  0
 20 23  1  0
 19 24  2  0
 15 24  1  0
 12 25  1  0
 25 26  2  0
  9 26  1  0
 26 27  1  0
 27 28  1  0
  6 29  1  0
 29 30  2  0
  3 30  1  0
M  END
>  <id>  (128) 
3856; 3852; 3853; 3855; 3854

>  <casrn>  (128) 
63405-85-6

>  <smiles (First)>  (128) 


>  <Molecular weight>  (128) 
425.4377746582031

>  <name>  (128) 
sodium 3-({3-methoxy-4-[(4-methoxyphenyl)diazenyl]phenyl}diazenyl)benzenesulfonate

>  <Outcome>  (128) 
1

>  <Molecule (RDKit Mol) (InChI Code)>  (128) 
InChI=1S/C20H18N4O5S/c1-28-17-9-6-14(7-10-17)21-24-19-11-8-16(13-20(19)29-2)23-22-15-4-3-5-18(12-15)30(25,26)27/h3-13H,1-2H3,(H,25,26,27)

>  <reference>  (128) 
ECHA

>  <molecule_form>  (128) 
A

>  <ID>  (128) 


>  <SMILES>  (128) 
COc1ccc(N=Nc2ccc(N=Nc3cccc(S(=O)(=O)O)c3)cc2OC)cc1

>  <ROMol>  (128) 
<rdkit.Chem.rdchem.Mol object at 0x0000027F5846E9E0>

$$$$

     RDKit          2D

  9  8  0  0  0  0  0  0  0  0999 V2000
    2.9980    2.5559    0.0000 C   0  0  0  0  0  0  0  0  0  0  0  0
    3.7125    2.1434    0.0000 C   0  0  0  0  0  0  0  0  0  0  0  0
    4.4270    2.5559    0.0000 C   0  0  0  0  0  0  0  0  0  0  0  0
    5.1414    2.1434    0.0000 C   0  0  0  0  0  0  0  0  0  0  0  0
    5.8559    2.5559    0.0000 C   0  0  0  0  0  0  0  0  0  0  0  0
    6.5704    2.1434    0.0000 C   0  0  0  0  0  0  0  0  0  0  0  0
    7.2849    2.5559    0.0000 C   0  0  0  0  0  0  0  0  0  0  0  0
    7.9993    2.1434    0.0000 C   0  0  0  0  0  0  0  0  0  0  0  0
    8.7138    2.5559    0.0000 C   0  0  0  0  0  0  0  0  0  0  0  0
  1  2  2  0
  2  3  1  0
  3  4  1  0
  4  5  1  0
  5  6  1  0
  6  7  1  0
  7  8  1  0
  8  9  1  0
M  END
>  <id>  (129) 
1986; 1978

>  <casrn>  (129) 
68526-55-6

>  <smiles (First)>  (129) 


>  <Molecular weight>  (129) 
126.23922729492188

>  <name>  (129) 
Alkenes, C8-10, C9-rich

>  <Outcome>  (129) 
0

>  <Molecule (RDKit Mol) (InChI Code)>  (129) 
InChI=1S/C9H18/c1-3-5-7-9-8-6-4-2/h3H,1,4-9H2,2H3

>  <reference>  (129) 
ECHA

>  <molecule_form>  (129) 
V

>  <ID>  (129) 


>  <SMILES>  (129) 
C=CCCCCCCC

>  <ROMol>  (129) 
<rdkit.Chem.rdchem.Mol object at 0x0000027F624DDB30>

$$$$

     RDKit          2D

  4  3  0  0  0  0  0  0  0  0999 V2000
    0.4398    0.9660    0.0000 N   0  0  0  0  0  0  0  0  0  0  0  0
    0.0273    0.2515    0.0000 C   0  0  0  0  0  0  0  0  0  0  0  0
    0.4398   -0.4630    0.0000 O   0  0  0  0  0  0  0  0  0  0  0  0
   -0.7977    0.2515    0.0000 O   0  0  0  0  0  0  0  0  0  0  0  0
  1  2  1  0
  2  3  1  0
  2  4  2  0
M  END
>  <id>  (130) 
906855; 906856; 906857

>  <casrn>  (130) 
1111-78-0

>  <smiles (First)>  (130) 
[NH4+].O.NC([O-])=O

>  <Molecular weight>  (130) 
60.032081604003906

>  <name>  (130) 
Ammonium carbamate

>  <Outcome>  (130) 
1

>  <Molecule (RDKit Mol) (InChI Code)>  (130) 
InChI=1S/CH3NO2/c2-1(3)4/h2H2,(H,3,4)

>  <reference>  (130) 
ToxValDB

>  <molecule_form>  (130) 
not specified

>  <ID>  (130) 


>  <SMILES>  (130) 
NC(=O)O

>  <ROMol>  (130) 
<rdkit.Chem.rdchem.Mol object at 0x0000027F5C017F90>

$$$$

     RDKit          2D

 14 14  0  0  0  0  0  0  0  0999 V2000
    0.7145    2.0625    0.0000 C   0  0  0  0  0  0  0  0  0  0  0  0
    0.7145    1.2375    0.0000 N   0  0  0  0  0  0  0  0  0  0  0  0
    1.4289    0.8250    0.0000 C   0  0  0  0  0  0  0  0  0  0  0  0
    2.1434    1.2375    0.0000 N   0  0  0  0  0  0  0  0  0  0  0  0
    1.4289   -0.0000    0.0000 C   0  0  0  0  0  0  0  0  0  0  0  0
    2.1434   -0.4125    0.0000 N   0  0  0  0  0  0  0  0  0  0  0  0
    2.1434   -1.2375    0.0000 C   0  0  0  0  0  0  0  0  0  0  0  0
    2.8579   -1.6500    0.0000 O   0  0  0  0  0  0  0  0  0  0  0  0
    0.7145   -0.4125    0.0000 C   0  0  0  0  0  0  0  0  0  0  0  0
    0.7145   -1.2375    0.0000 O   0  0  0  0  0  0  0  0  0  0  0  0
   -0.0000    0.0000    0.0000 N   0  0  0  0  0  0  0  0  0  0  0  0
   -0.7145   -0.4125    0.0000 C   0  0  0  0  0  0  0  0  0  0  0  0
   -0.0000    0.8250    0.0000 C   0  0  0  0  0  0  0  0  0  0  0  0
   -0.7145    1.2375    0.0000 O   0  0  0  0  0  0  0  0  0  0  0  0
  1  2  1  0
  2  3  1  0
  3  4  1  0
  3  5  2  0
  5  6  1  0
  6  7  1  0
  7  8  2  0
  5  9  1  0
  9 10  2  0
  9 11  1  0
 11 12  1  0
 11 13  1  0
  2 13  1  0
 13 14  2  0
M  END
>  <id>  (131) 
2397

>  <casrn>  (131) 
7597-60-6

>  <smiles (First)>  (131) 


>  <Molecular weight>  (131) 
198.17930603027344

>  <name>  (131) 
N-(6-amino-1,3-dimethyl-2,4-dioxo-1,2,3,4-tetrahydropyrimidin-5-yl)formamide

>  <Outcome>  (131) 
0

>  <Molecule (RDKit Mol) (InChI Code)>  (131) 
InChI=1S/C7H10N4O3/c1-10-5(8)4(9-3-12)6(13)11(2)7(10)14/h3H,8H2,1-2H3,(H,9,12)

>  <reference>  (131) 
ECHA

>  <molecule_form>  (131) 
A

>  <ID>  (131) 


>  <SMILES>  (131) 
Cn1c(N)c(NC=O)c(=O)n(C)c1=O

>  <ROMol>  (131) 
<rdkit.Chem.rdchem.Mol object at 0x0000027F78E370B0>

$$$$

     RDKit          2D

  7  6  0  0  0  0  0  0  0  0999 V2000
    1.7590    1.6178    0.0000 C   0  0  0  0  0  0  0  0  0  0  0  0
    1.3465    0.9033    0.0000 C   0  0  0  0  0  0  0  0  0  0  0  0
    0.6320    1.3158    0.0000 C   0  0  0  0  0  0  0  0  0  0  0  0
    2.0610    0.4908    0.0000 C   0  0  0  0  0  0  0  0  0  0  0  0
    0.9340    0.1889    0.0000 C   0  0  0  0  0  0  0  0  0  0  0  0
    1.3465   -0.5256    0.0000 O   0  0  0  0  0  0  0  0  0  0  0  0
    0.1090    0.1889    0.0000 Cl  0  0  0  0  0  0  0  0  0  0  0  0
  1  2  1  0
  2  3  1  0
  2  4  1  0
  2  5  1  0
  5  6  2  0
  5  7  1  0
M  END
>  <id>  (132) 
1276

>  <casrn>  (132) 
3282-30-2

>  <smiles (First)>  (132) 


>  <Molecular weight>  (132) 
120.57736206054688

>  <name>  (132) 
2,2-dimethylpropanoyl chloride

>  <Outcome>  (132) 
1

>  <Molecule (RDKit Mol) (InChI Code)>  (132) 
InChI=1S/C5H9ClO/c1-5(2,3)4(6)7/h1-3H3

>  <reference>  (132) 
ECHA

>  <molecule_form>  (132) 
V

>  <ID>  (132) 


>  <SMILES>  (132) 
CC(C)(C)C(=O)Cl

>  <ROMol>  (132) 
<rdkit.Chem.rdchem.Mol object at 0x0000027F58419120>

$$$$

     RDKit          2D

 10  9  0  0  0  0  0  0  0  0999 V2000
    1.0010    1.4299    0.0000 C   0  0  0  0  0  0  0  0  0  0  0  0
    1.7155    1.8424    0.0000 C   0  0  0  0  0  0  0  0  0  0  0  0
    2.4300    1.4299    0.0000 C   0  0  0  0  0  0  0  0  0  0  0  0
    3.1444    1.8424    0.0000 C   0  0  0  0  0  0  0  0  0  0  0  0
    3.1444    2.6674    0.0000 C   0  0  0  0  0  0  0  0  0  0  0  0
    3.8589    1.4299    0.0000 C   0  0  0  0  0  0  0  0  0  0  0  0
    3.8589    0.6049    0.0000 O   0  0  0  0  0  0  0  0  0  0  0  0
    4.5734    1.8424    0.0000 O   0  0  0  0  0  0  0  0  0  0  0  0
    5.2878    1.4299    0.0000 C   0  0  0  0  0  0  0  0  0  0  0  0
    6.0023    1.8424    0.0000 C   0  0  0  0  0  0  0  0  0  0  0  0
  1  2  1  0
  2  3  1  0
  3  4  1  0
  4  5  1  0
  4  6  1  0
  6  7  2  0
  6  8  1  0
  8  9  1  0
  9 10  1  0
M  END
>  <id>  (133) 
3148

>  <casrn>  (133) 
39255-32-8

>  <smiles (First)>  (133) 


>  <Molecular weight>  (133) 
144.21144104003906

>  <name>  (133) 
ethyl 2-methylpentanoate

>  <Outcome>  (133) 
0

>  <Molecule (RDKit Mol) (InChI Code)>  (133) 
InChI=1S/C8H16O2/c1-4-6-7(3)8(9)10-5-2/h7H,4-6H2,1-3H3

>  <reference>  (133) 
ECHA

>  <molecule_form>  (133) 
A

>  <ID>  (133) 


>  <SMILES>  (133) 
CCCC(C)C(=O)OCC

>  <ROMol>  (133) 
<rdkit.Chem.rdchem.Mol object at 0x0000027F58428040>

$$$$

     RDKit          2D

  8  7  0  0  0  0  0  0  0  0999 V2000
    2.0647    0.7132    0.0000 C   0  0  0  0  0  0  0  0  0  0  0  0
    1.2397    0.7132    0.0000 C   0  0  0  0  0  0  0  0  0  0  0  0
    0.8272   -0.0013    0.0000 C   0  0  0  0  0  0  0  0  0  0  0  0
    0.0022   -0.0013    0.0000 C   0  0  0  0  0  0  0  0  0  0  0  0
   -0.4103   -0.7157    0.0000 C   0  0  0  0  0  0  0  0  0  0  0  0
    0.0022   -1.4302    0.0000 C   0  0  0  0  0  0  0  0  0  0  0  0
   -0.4103   -2.1447    0.0000 C   0  0  0  0  0  0  0  0  0  0  0  0
    0.0022   -2.8592    0.0000 C   0  0  0  0  0  0  0  0  0  0  0  0
  1  2  1  0
  3  2  1  0
  3  4  2  3
  4  5  1  0
  5  6  1  0
  6  7  1  0
  7  8  1  0
M  END
>  <id>  (134) 
3538; 3556; 3544; 3550; 3554; 3555; 3560; 3536; 3559; 3549; 3545; 3537; 3551; 3543

>  <casrn>  (134) 
25377-83-7

>  <smiles (First)>  (134) 


>  <Molecular weight>  (134) 
112.212646484375

>  <name>  (134) 
oct-1-ene

>  <Outcome>  (134) 
0

>  <Molecule (RDKit Mol) (InChI Code)>  (134) 
InChI=1S/C8H16/c1-3-5-7-8-6-4-2/h5,7H,3-4,6,8H2,1-2H3

>  <reference>  (134) 
ECHA

>  <molecule_form>  (134) 
V

>  <ID>  (134) 


>  <SMILES>  (134) 
CCC=CCCCC

>  <ROMol>  (134) 
<rdkit.Chem.rdchem.Mol object at 0x0000027F584ACD60>

$$$$

     RDKit          2D

 12 12  0  0  0  0  0  0  0  0999 V2000
   -1.0338   -0.9060    0.0000 C   0  0  0  0  0  0  0  0  0  0  0  0
   -0.3193   -0.4935    0.0000 C   0  0  0  0  0  0  0  0  0  0  0  0
    0.3951   -0.9060    0.0000 C   0  0  0  0  0  0  0  0  0  0  0  0
    0.3951   -1.7310    0.0000 O   0  0  0  0  0  0  0  0  0  0  0  0
    1.1096   -0.4935    0.0000 O   0  0  0  0  0  0  0  0  0  0  0  0
    1.8241   -0.9060    0.0000 C   0  0  0  0  0  0  0  0  0  0  0  0
    2.5385   -0.4935    0.0000 C   0  0  0  0  0  0  0  0  0  0  0  0
    3.2530   -0.9060    0.0000 C   0  0  0  0  0  0  0  0  0  0  0  0
    3.9675   -0.4935    0.0000 C   0  0  0  0  0  0  0  0  0  0  0  0
    3.9675    0.3315    0.0000 C   0  0  0  0  0  0  0  0  0  0  0  0
    3.2530    0.7440    0.0000 C   0  0  0  0  0  0  0  0  0  0  0  0
    2.5385    0.3315    0.0000 C   0  0  0  0  0  0  0  0  0  0  0  0
  1  2  1  0
  2  3  1  0
  3  4  2  0
  3  5  1  0
  5  6  1  0
  6  7  1  0
  8  7  2  0
  9  8  1  0
 10  9  2  0
 11 10  1  0
 12 11  2  0
  7 12  1  0
M  END
>  <id>  (135) 
219488

>  <casrn>  (135) 
122-63-4

>  <smiles (First)>  (135) 
CCC(=O)OCc1ccccc1

>  <Molecular weight>  (135) 
164.20108032226562

>  <name>  (135) 
Benzyl propanoate

>  <Outcome>  (135) 
0

>  <Molecule (RDKit Mol) (InChI Code)>  (135) 
InChI=1S/C10H12O2/c1-2-10(11)12-8-9-6-4-3-5-7-9/h3-7H,2,8H2,1H3

>  <reference>  (135) 
ToxValDB

>  <molecule_form>  (135) 
not specified

>  <ID>  (135) 


>  <SMILES>  (135) 
CCC(=O)OCc1ccccc1

>  <ROMol>  (135) 
<rdkit.Chem.rdchem.Mol object at 0x0000027F58444430>

$$$$

     RDKit          2D

 17 18  0  0  0  0  0  0  0  0999 V2000
    2.2316   -0.4117    0.0000 C   0  0  0  0  0  0  0  0  0  0  0  0
    2.2316   -1.2367    0.0000 C   0  0  0  0  0  0  0  0  0  0  0  0
    2.9460   -1.6492    0.0000 C   0  0  0  0  0  0  0  0  0  0  0  0
    2.9460   -2.4742    0.0000 C   0  0  0  0  0  0  0  0  0  0  0  0
    3.6605   -2.8867    0.0000 C   0  0  0  0  0  0  0  0  0  0  0  0
    3.6605   -3.7117    0.0000 C   0  0  0  0  0  0  0  0  0  0  0  0
    4.3750   -4.1242    0.0000 C   0  0  0  0  0  0  0  0  0  0  0  0
    4.3750   -4.9492    0.0000 C   0  0  0  0  0  0  0  0  0  0  0  0
    3.6605   -5.3617    0.0000 C   0  0  0  0  0  0  0  0  0  0  0  0
    3.6605   -6.1867    0.0000 N   0  0  0  0  0  0  0  0  0  0  0  0
    2.9460   -4.9492    0.0000 C   0  0  0  0  0  0  0  0  0  0  0  0
    2.2316   -5.3617    0.0000 C   0  0  0  0  0  0  0  0  0  0  0  0
    2.9460   -4.1242    0.0000 C   0  0  0  0  0  0  0  0  0  0  0  0
    2.2316   -2.8867    0.0000 C   0  0  0  0  0  0  0  0  0  0  0  0
    1.5171   -2.4742    0.0000 C   0  0  0  0  0  0  0  0  0  0  0  0
    1.5171   -1.6492    0.0000 C   0  0  0  0  0  0  0  0  0  0  0  0
    0.8026   -1.2367    0.0000 N   0  0  0  0  0  0  0  0  0  0  0  0
  1  2  1  0
  2  3  1  0
  3  4  1  0
  4  5  1  0
  5  6  1  0
  6  7  1  0
  7  8  1  0
  8  9  1  0
  9 10  1  0
  9 11  1  0
 11 12  1  0
 11 13  1  0
  6 13  1  0
  4 14  1  0
 14 15  1  0
 15 16  1  0
  2 16  1  0
 16 17  1  0
M  END
>  <id>  (136) 
1819

>  <casrn>  (136) 
6864-37-5

>  <smiles (First)>  (136) 


>  <Molecular weight>  (136) 
238.412109375

>  <name>  (136) 
4-[(4-amino-3-methylcyclohexyl)methyl]-2-methylcyclohexan-1-amine

>  <Outcome>  (136) 
1

>  <Molecule (RDKit Mol) (InChI Code)>  (136) 
InChI=1S/C15H30N2/c1-10-7-12(3-5-14(10)16)9-13-4-6-15(17)11(2)8-13/h10-15H,3-9,16-17H2,1-2H3

>  <reference>  (136) 
ECHA

>  <molecule_form>  (136) 
A

>  <ID>  (136) 


>  <SMILES>  (136) 
CC1CC(CC2CCC(N)C(C)C2)CCC1N

>  <ROMol>  (136) 
<rdkit.Chem.rdchem.Mol object at 0x0000027F624DD120>

$$$$

     RDKit          2D

 13 12  0  0  0  0  0  0  0  0999 V2000
    0.7213   -2.9947    0.0000 C   0  0  0  0  0  0  0  0  0  0  0  0
    1.2614   -3.6183    0.0000 C   0  0  0  0  0  0  0  0  0  0  0  0
    0.9914   -4.3979    0.0000 C   0  0  0  0  0  0  0  0  0  0  0  0
    2.0716   -3.4624    0.0000 C   0  0  0  0  0  0  0  0  0  0  0  0
    2.3416   -2.6828    0.0000 O   0  0  0  0  0  0  0  0  0  0  0  0
    2.6116   -4.0860    0.0000 O   0  0  0  0  0  0  0  0  0  0  0  0
    3.4218   -3.9301    0.0000 C   0  0  0  0  0  0  0  0  0  0  0  0
    3.9619   -4.5538    0.0000 C   0  0  0  0  0  0  0  0  0  0  0  0
    4.7720   -4.3979    0.0000 N   0  0  0  0  0  0  0  0  0  0  0  0
    5.3121   -5.0215    0.0000 C   0  0  0  0  0  0  0  0  0  0  0  0
    6.1222   -4.8656    0.0000 C   0  0  0  0  0  0  0  0  0  0  0  0
    5.0421   -3.6183    0.0000 C   0  0  0  0  0  0  0  0  0  0  0  0
    5.8522   -3.4624    0.0000 C   0  0  0  0  0  0  0  0  0  0  0  0
  1  2  2  0
  2  3  1  0
  2  4  1  0
  4  5  2  0
  4  6  1  0
  6  7  1  0
  7  8  1  0
  8  9  1  0
  9 10  1  0
 10 11  1  0
  9 12  1  0
 12 13  1  0
M  END
>  <id>  (137) 
1338

>  <casrn>  (137) 
105-16-8

>  <smiles (First)>  (137) 


>  <Molecular weight>  (137) 
185.26336669921875

>  <name>  (137) 
2-(diethylamino)ethyl 2-methylprop-2-enoate

>  <Outcome>  (137) 
1

>  <Molecule (RDKit Mol) (InChI Code)>  (137) 
InChI=1S/C10H19NO2/c1-5-11(6-2)7-8-13-10(12)9(3)4/h3,5-8H2,1-2,4H3

>  <reference>  (137) 
ECHA

>  <molecule_form>  (137) 
A

>  <ID>  (137) 


>  <SMILES>  (137) 
C=C(C)C(=O)OCCN(CC)CC

>  <ROMol>  (137) 
<rdkit.Chem.rdchem.Mol object at 0x0000027F585E2A50>

$$$$

     RDKit          2D

 22 24  0  0  0  0  0  0  0  0999 V2000
   -1.2754   -0.0364    0.0000 O   0  0  0  0  0  0  0  0  0  0  0  0
   -0.5609   -0.4489    0.0000 C   0  0  0  0  0  0  0  0  0  0  0  0
   -0.2254    0.3048    0.0000 O   0  0  0  0  0  0  0  0  0  0  0  0
   -0.5609   -1.2739    0.0000 C   0  0  0  0  0  0  0  0  0  0  0  0
   -1.2754   -1.6864    0.0000 C   0  0  0  0  0  0  0  0  0  0  0  0
   -1.2754   -2.5114    0.0000 C   0  0  0  0  0  0  0  0  0  0  0  0
   -0.5609   -2.9239    0.0000 C   0  0  0  0  0  0  0  0  0  0  0  0
    0.1535   -2.5114    0.0000 C   0  0  0  0  0  0  0  0  0  0  0  0
    0.1535   -1.6864    0.0000 C   0  0  0  0  0  0  0  0  0  0  0  0
    0.8680   -1.2739    0.0000 P   0  0  0  0  0  0  0  0  0  0  0  0
    1.5825   -1.6864    0.0000 C   0  0  0  0  0  0  0  0  0  0  0  0
    2.2969   -1.2739    0.0000 C   0  0  0  0  0  0  0  0  0  0  0  0
    3.0114   -1.6864    0.0000 C   0  0  0  0  0  0  0  0  0  0  0  0
    3.0114   -2.5114    0.0000 C   0  0  0  0  0  0  0  0  0  0  0  0
    2.2969   -2.9239    0.0000 C   0  0  0  0  0  0  0  0  0  0  0  0
    1.5825   -2.5114    0.0000 C   0  0  0  0  0  0  0  0  0  0  0  0
    0.8680   -0.4489    0.0000 C   0  0  0  0  0  0  0  0  0  0  0  0
    0.1535   -0.0364    0.0000 C   0  0  0  0  0  0  0  0  0  0  0  0
    0.1535    0.7886    0.0000 C   0  0  0  0  0  0  0  0  0  0  0  0
    0.8680    1.2011    0.0000 C   0  0  0  0  0  0  0  0  0  0  0  0
    1.5825    0.7886    0.0000 C   0  0  0  0  0  0  0  0  0  0  0  0
    1.5825   -0.0364    0.0000 C   0  0  0  0  0  0  0  0  0  0  0  0
  1  2  2  0
  2  3  1  0
  2  4  1  0
  4  5  2  0
  5  6  1  0
  6  7  2  0
  7  8  1  0
  8  9  2  0
  4  9  1  0
  9 10  1  0
 10 11  1  0
 11 12  2  0
 12 13  1  0
 13 14  2  0
 14 15  1  0
 15 16  2  0
 11 16  1  0
 10 17  1  0
 17 18  2  0
 18 19  1  0
 19 20  2  0
 20 21  1  0
 21 22  2  0
 17 22  1  0
M  END
>  <id>  (138) 
1345

>  <casrn>  (138) 
17261-28-8

>  <smiles (First)>  (138) 


>  <Molecular weight>  (138) 
306.2949523925781

>  <name>  (138) 
2-(diphenylphosphino)benzoic acid

>  <Outcome>  (138) 
1

>  <Molecule (RDKit Mol) (InChI Code)>  (138) 
InChI=1S/C19H15O2P/c20-19(21)17-13-7-8-14-18(17)22(15-9-3-1-4-10-15)16-11-5-2-6-12-16/h1-14H,(H,20,21)

>  <reference>  (138) 
ECHA

>  <molecule_form>  (138) 
A

>  <ID>  (138) 


>  <SMILES>  (138) 
O=C(O)c1ccccc1P(c1ccccc1)c1ccccc1

>  <ROMol>  (138) 
<rdkit.Chem.rdchem.Mol object at 0x0000027F584D5F90>

$$$$

     RDKit          2D

 15 14  0  0  0  0  0  0  0  0999 V2000
    5.4730    3.9861    0.0000 C   0  0  0  0  0  0  0  0  0  0  0  0
    6.1875    3.5736    0.0000 C   0  0  0  0  0  0  0  0  0  0  0  0
    6.9020    3.9861    0.0000 C   0  0  0  0  0  0  0  0  0  0  0  0
    6.9020    4.8111    0.0000 O   0  0  0  0  0  0  0  0  0  0  0  0
    7.6164    3.5736    0.0000 O   0  0  0  0  0  0  0  0  0  0  0  0
    8.3309    3.9861    0.0000 C   0  0  0  0  0  0  0  0  0  0  0  0
    9.0454    3.5736    0.0000 C   0  0  0  0  0  0  0  0  0  0  0  0
    9.7599    3.9861    0.0000 O   0  0  0  0  0  0  0  0  0  0  0  0
   10.4743    3.5736    0.0000 C   0  0  0  0  0  0  0  0  0  0  0  0
   10.4743    2.7486    0.0000 O   0  0  0  0  0  0  0  0  0  0  0  0
   11.1888    3.9861    0.0000 N   0  0  0  0  0  0  0  0  0  0  0  0
   11.9033    3.5736    0.0000 C   0  0  0  0  0  0  0  0  0  0  0  0
   12.6177    3.9861    0.0000 C   0  0  0  0  0  0  0  0  0  0  0  0
   13.3322    3.5736    0.0000 C   0  0  0  0  0  0  0  0  0  0  0  0
   14.0467    3.9861    0.0000 C   0  0  0  0  0  0  0  0  0  0  0  0
  1  2  2  0
  2  3  1  0
  3  4  2  0
  3  5  1  0
  5  6  1  0
  6  7  1  0
  7  8  1  0
  8  9  1  0
  9 10  2  0
  9 11  1  0
 11 12  1  0
 12 13  1  0
 13 14  1  0
 14 15  1  0
M  END
>  <id>  (139) 
1391; 1390; 1389

>  <casrn>  (139) 
63225-53-6

>  <smiles (First)>  (139) 


>  <Molecular weight>  (139) 
215.24627685546872

>  <name>  (139) 
2-[(butylcarbamoyl)oxy]ethyl prop-2-enoate

>  <Outcome>  (139) 
1

>  <Molecule (RDKit Mol) (InChI Code)>  (139) 
InChI=1S/C10H17NO4/c1-3-5-6-11-10(13)15-8-7-14-9(12)4-2/h4H,2-3,5-8H2,1H3,(H,11,13)

>  <reference>  (139) 
ECHA

>  <molecule_form>  (139) 
A

>  <ID>  (139) 


>  <SMILES>  (139) 
C=CC(=O)OCCOC(=O)NCCCC

>  <ROMol>  (139) 
<rdkit.Chem.rdchem.Mol object at 0x0000027F58437430>

$$$$

     RDKit          2D

  6  5  0  0  0  0  0  0  0  0999 V2000
    0.4303    1.2804    0.0000 C   0  0  0  0  0  0  0  0  0  0  0  0
    0.8428    0.5660    0.0000 C   0  0  0  0  0  0  0  0  0  0  0  0
    1.6678    0.5660    0.0000 C   0  0  0  0  0  0  0  0  0  0  0  0
    0.4303   -0.1485    0.0000 C   0  0  0  0  0  0  0  0  0  0  0  0
    0.8428   -0.8630    0.0000 O   0  0  0  0  0  0  0  0  0  0  0  0
   -0.3947   -0.1485    0.0000 O   0  0  0  0  0  0  0  0  0  0  0  0
  1  2  1  0
  2  3  2  0
  2  4  1  0
  4  5  1  0
  4  6  2  0
M  END
>  <id>  (140) 


>  <casrn>  (140) 
79-41-4

>  <smiles (First)>  (140) 


>  <Molecular weight>  (140) 
86.08924102783203

>  <name>  (140) 
Methacrylic acid

>  <Outcome>  (140) 
1

>  <Molecule (RDKit Mol) (InChI Code)>  (140) 
InChI=1S/C4H6O2/c1-3(2)4(5)6/h1H2,2H3,(H,5,6)

>  <reference>  (140) 
ECHA

>  <molecule_form>  (140) 
not specified

>  <ID>  (140) 


>  <SMILES>  (140) 
C=C(C)C(=O)O

>  <ROMol>  (140) 
<rdkit.Chem.rdchem.Mol object at 0x0000027F589052E0>

$$$$

     RDKit          2D

  8  8  0  0  0  0  0  0  0  0999 V2000
    0.6877    2.0727    0.0000 C   0  0  0  0  0  0  0  0  0  0  0  0
    0.6877    1.2477    0.0000 C   0  0  0  0  0  0  0  0  0  0  0  0
    1.4022    0.8352    0.0000 C   0  0  0  0  0  0  0  0  0  0  0  0
    1.4022    0.0102    0.0000 C   0  0  0  0  0  0  0  0  0  0  0  0
    0.6877   -0.4023    0.0000 C   0  0  0  0  0  0  0  0  0  0  0  0
   -0.0268    0.0102    0.0000 C   0  0  0  0  0  0  0  0  0  0  0  0
   -0.0268    0.8352    0.0000 C   0  0  0  0  0  0  0  0  0  0  0  0
   -0.7412    1.2477    0.0000 C   0  0  0  0  0  0  0  0  0  0  0  0
  1  2  1  0
  2  3  2  0
  3  4  1  0
  4  5  2  0
  5  6  1  0
  6  7  2  0
  2  7  1  0
  7  8  1  0
M  END
>  <id>  (141) 
949; 945; 948; 946; 944; 942; 943; 941

>  <casrn>  (141) 
95-47-6

>  <smiles (First)>  (141) 


>  <Molecular weight>  (141) 
106.16500091552734

>  <name>  (141) 
1,2-xylene

>  <Outcome>  (141) 
0

>  <Molecule (RDKit Mol) (InChI Code)>  (141) 
InChI=1S/C8H10/c1-7-5-3-4-6-8(7)2/h3-6H,1-2H3

>  <reference>  (141) 
ECHA

>  <molecule_form>  (141) 
V

>  <ID>  (141) 


>  <SMILES>  (141) 
Cc1ccccc1C

>  <ROMol>  (141) 
<rdkit.Chem.rdchem.Mol object at 0x0000027F584373C0>

$$$$

     RDKit          2D

 10  9  0  0  0  0  0  0  0  0999 V2000
    2.2836    2.1434    0.0000 C   0  0  0  0  0  0  0  0  0  0  0  0
    2.9980    2.5559    0.0000 C   0  0  0  0  0  0  0  0  0  0  0  0
    3.7125    2.1434    0.0000 C   0  0  0  0  0  0  0  0  0  0  0  0
    4.4270    2.5559    0.0000 C   0  0  0  0  0  0  0  0  0  0  0  0
    5.1414    2.1434    0.0000 C   0  0  0  0  0  0  0  0  0  0  0  0
    5.8559    2.5559    0.0000 C   0  0  0  0  0  0  0  0  0  0  0  0
    6.5704    2.1434    0.0000 C   0  0  0  0  0  0  0  0  0  0  0  0
    7.2849    2.5559    0.0000 C   0  0  0  0  0  0  0  0  0  0  0  0
    7.9993    2.1434    0.0000 C   0  0  0  0  0  0  0  0  0  0  0  0
    8.7138    2.5559    0.0000 C   0  0  0  0  0  0  0  0  0  0  0  0
  1  2  1  0
  2  3  1  0
  3  4  1  0
  4  5  1  0
  5  6  1  0
  6  7  1  0
  7  8  1  0
  8  9  1  0
  9 10  1  0
M  END
>  <id>  (142) 
2896; 2892; 2893; 2895; 2889

>  <casrn>  (142) 
124-18-5

>  <smiles (First)>  (142) 


>  <Molecular weight>  (142) 
142.28167724609375

>  <name>  (142) 
decane

>  <Outcome>  (142) 
0

>  <Molecule (RDKit Mol) (InChI Code)>  (142) 
InChI=1S/C10H22/c1-3-5-7-9-10-8-6-4-2/h3-10H2,1-2H3

>  <reference>  (142) 
ECHA

>  <molecule_form>  (142) 
V; A

>  <ID>  (142) 


>  <SMILES>  (142) 
CCCCCCCCCC

>  <ROMol>  (142) 
<rdkit.Chem.rdchem.Mol object at 0x0000027F584DE5F0>

$$$$

     RDKit          2D

 15 14  0  0  0  0  0  0  0  0999 V2000
    2.7869    0.7596    0.0000 C   0  0  0  0  0  0  0  0  0  0  0  0
    2.0724    0.3471    0.0000 O   0  0  0  0  0  0  0  0  0  0  0  0
    1.3579    0.7596    0.0000 Si  0  0  0  0  0  4  0  0  0  0  0  0
    0.6434    1.1721    0.0000 C   0  0  0  0  0  0  0  0  0  0  0  0
    0.6434    1.9971    0.0000 C   0  0  0  0  0  0  0  0  0  0  0  0
   -0.0710    2.4096    0.0000 C   0  0  0  0  0  0  0  0  0  0  0  0
    1.3579    2.4096    0.0000 C   0  0  0  0  0  0  0  0  0  0  0  0
    1.3579    3.2346    0.0000 C   0  0  0  0  0  0  0  0  0  0  0  0
    1.3579    4.0596    0.0000 C   0  0  0  0  0  0  0  0  0  0  0  0
    2.1829    3.2346    0.0000 C   0  0  0  0  0  0  0  0  0  0  0  0
    0.5329    3.2346    0.0000 C   0  0  0  0  0  0  0  0  0  0  0  0
    1.7704    1.4741    0.0000 O   0  0  0  0  0  0  0  0  0  0  0  0
    2.5954    1.4741    0.0000 C   0  0  0  0  0  0  0  0  0  0  0  0
    0.9454    0.0451    0.0000 O   0  0  0  0  0  0  0  0  0  0  0  0
    0.1204    0.0451    0.0000 C   0  0  0  0  0  0  0  0  0  0  0  0
  1  2  1  0
  2  3  1  0
  3  4  1  0
  4  5  1  0
  5  6  1  0
  5  7  1  0
  7  8  1  0
  8  9  1  0
  8 10  1  0
  8 11  1  0
  3 12  1  0
 12 13  1  0
  3 14  1  0
 14 15  1  0
M  END
>  <id>  (143) 
4081

>  <casrn>  (143) 
34396-03-7

>  <smiles (First)>  (143) 


>  <Molecular weight>  (143) 
234.40785217285156

>  <name>  (143) 
trimethoxy(2,4,4-trimethylpentyl)silane

>  <Outcome>  (143) 
0

>  <Molecule (RDKit Mol) (InChI Code)>  (143) 
InChI=1S/C11H26O3Si/c1-10(8-11(2,3)4)9-15(12-5,13-6)14-7/h10H,8-9H2,1-7H3

>  <reference>  (143) 
ECHA

>  <molecule_form>  (143) 
A

>  <ID>  (143) 


>  <SMILES>  (143) 
CO[Si](CC(C)CC(C)(C)C)(OC)OC

>  <ROMol>  (143) 
<rdkit.Chem.rdchem.Mol object at 0x0000027F5C144190>

$$$$

     RDKit          2D

  6  5  0  0  0  0  0  0  0  0999 V2000
    1.2403    0.7145    0.0000 C   0  0  0  0  0  0  0  0  0  0  0  0
    0.8278    0.0000    0.0000 C   0  0  0  0  0  0  0  0  0  0  0  0
    0.0028    0.0000    0.0000 C   0  0  0  0  0  0  0  0  0  0  0  0
   -0.4097   -0.7145    0.0000 C   0  0  0  0  0  0  0  0  0  0  0  0
    0.0028   -1.4289    0.0000 C   0  0  0  0  0  0  0  0  0  0  0  0
    0.4153   -2.1434    0.0000 N   0  0  0  0  0  0  0  0  0  0  0  0
  2  1  1  0
  2  3  2  3
  3  4  1  0
  4  5  1  0
  5  6  3  0
M  END
>  <id>  (144) 
3686

>  <casrn>  (144) 
4635-87-4

>  <smiles (First)>  (144) 


>  <Molecular weight>  (144) 
81.11578369140625

>  <name>  (144) 
pent-3-enenitrile

>  <Outcome>  (144) 
1

>  <Molecule (RDKit Mol) (InChI Code)>  (144) 
InChI=1S/C5H7N/c1-2-3-4-5-6/h2-3H,4H2,1H3

>  <reference>  (144) 
ECHA

>  <molecule_form>  (144) 
V

>  <ID>  (144) 


>  <SMILES>  (144) 
CC=CCC#N

>  <ROMol>  (144) 
<rdkit.Chem.rdchem.Mol object at 0x0000027F5C144120>

$$$$

     RDKit          2D

  7  6  0  0  0  0  0  0  0  0999 V2000
    1.2791    2.2000    0.0000 C   0  0  0  0  0  0  0  0  0  0  0  0
    0.8666    1.4855    0.0000 C   0  0  0  0  0  0  0  0  0  0  0  0
    0.0416    1.4855    0.0000 O   0  0  0  0  0  0  0  0  0  0  0  0
    1.2791    0.7711    0.0000 C   0  0  0  0  0  0  0  0  0  0  0  0
    0.8666    0.0566    0.0000 C   0  0  0  0  0  0  0  0  0  0  0  0
    1.2791   -0.6579    0.0000 C   0  0  0  0  0  0  0  0  0  0  0  0
    0.0416    0.0566    0.0000 C   0  0  0  0  0  0  0  0  0  0  0  0
  1  2  1  0
  2  3  2  0
  2  4  1  0
  4  5  1  0
  5  6  1  0
  5  7  1  0
M  END
>  <id>  (145) 
1848

>  <casrn>  (145) 
108-10-1

>  <smiles (First)>  (145) 


>  <Molecular weight>  (145) 
100.15888214111328

>  <name>  (145) 
4-methylpentan-2-one

>  <Outcome>  (145) 
1

>  <Molecule (RDKit Mol) (InChI Code)>  (145) 
InChI=1S/C6H12O/c1-5(2)4-6(3)7/h5H,4H2,1-3H3

>  <reference>  (145) 
ECHA

>  <molecule_form>  (145) 
V

>  <ID>  (145) 


>  <SMILES>  (145) 
CC(=O)CC(C)C

>  <ROMol>  (145) 
<rdkit.Chem.rdchem.Mol object at 0x0000027F624B1970>

$$$$

     RDKit          2D

  7  7  0  0  0  0  0  0  0  0999 V2000
    0.7145    2.0625    0.0000 C   0  0  0  0  0  0  0  0  0  0  0  0
    0.7145    1.2375    0.0000 C   0  0  0  0  0  0  0  0  0  0  0  0
    1.4289    0.8250    0.0000 C   0  0  0  0  0  0  0  0  0  0  0  0
    1.4289    0.0000    0.0000 C   0  0  0  0  0  0  0  0  0  0  0  0
    0.7145   -0.4125    0.0000 C   0  0  0  0  0  0  0  0  0  0  0  0
    0.0000    0.0000    0.0000 N   0  0  0  0  0  0  0  0  0  0  0  0
    0.0000    0.8250    0.0000 C   0  0  0  0  0  0  0  0  0  0  0  0
  1  2  1  0
  2  3  2  0
  3  4  1  0
  4  5  2  0
  5  6  1  0
  6  7  2  0
  2  7  1  0
M  END
>  <id>  (146) 
1805

>  <casrn>  (146) 
108-99-6

>  <smiles (First)>  (146) 


>  <Molecular weight>  (146) 
93.12648010253906

>  <name>  (146) 
3-methylpyridine

>  <Outcome>  (146) 
1

>  <Molecule (RDKit Mol) (InChI Code)>  (146) 
InChI=1S/C6H7N/c1-6-3-2-4-7-5-6/h2-5H,1H3

>  <reference>  (146) 
ECHA

>  <molecule_form>  (146) 
V

>  <ID>  (146) 


>  <SMILES>  (146) 
Cc1cccnc1

>  <ROMol>  (146) 
<rdkit.Chem.rdchem.Mol object at 0x0000027F58428F90>

$$$$

     RDKit          2D

 10  9  0  0  0  0  0  0  0  0999 V2000
    2.9485   -0.5547    0.0000 C   0  0  0  0  0  0  0  0  0  0  0  0
    2.5360    0.1598    0.0000 O   0  0  0  0  0  0  0  0  0  0  0  0
    1.7110    0.1598    0.0000 Si  0  0  0  0  0  4  0  0  0  0  0  0
    1.7110    0.9848    0.0000 C   0  0  0  0  0  0  0  0  0  0  0  0
    0.8860    0.1598    0.0000 C   0  0  0  0  0  0  0  0  0  0  0  0
    0.4735    0.8743    0.0000 N   0  0  0  0  0  0  0  0  0  0  0  0
   -0.3515    0.8743    0.0000 C   0  0  0  0  0  0  0  0  0  0  0  0
   -1.1765    0.8743    0.0000 O   0  0  0  0  0  0  0  0  0  0  0  0
    1.7110   -0.6652    0.0000 O   0  0  0  0  0  0  0  0  0  0  0  0
    0.9965   -1.0777    0.0000 C   0  0  0  0  0  0  0  0  0  0  0  0
  1  2  1  0
  2  3  1  0
  3  4  1  0
  3  5  1  0
  5  6  1  0
  6  7  2  0
  7  8  2  0
  3  9  1  0
  9 10  1  0
M  END
>  <id>  (147) 
948619

>  <casrn>  (147) 
406679-89-8

>  <smiles (First)>  (147) 
CO[Si](C)(CN=C=O)OC

>  <Molecular weight>  (147) 
161.2312469482422

>  <name>  (147) 
(Isocyanatomethyl)(dimethoxy)methylsilane

>  <Outcome>  (147) 
1

>  <Molecule (RDKit Mol) (InChI Code)>  (147) 
InChI=1S/C5H11NO3Si/c1-8-10(3,9-2)5-6-4-7/h5H2,1-3H3

>  <reference>  (147) 
ToxValDB

>  <molecule_form>  (147) 
not specified

>  <ID>  (147) 


>  <SMILES>  (147) 
CO[Si](C)(CN=C=O)OC

>  <ROMol>  (147) 
<rdkit.Chem.rdchem.Mol object at 0x0000027F585CB430>

$$$$

     RDKit          2D

 16 16  0  0  0  0  0  0  0  0999 V2000
    1.3512    1.8121    0.0000 C   0  0  0  0  0  0  0  0  0  0  0  0
    0.8209    1.1801    0.0000 C   0  0  0  0  0  0  0  0  0  0  0  0
    0.2906    1.8121    0.0000 C   0  0  0  0  0  0  0  0  0  0  0  0
    1.5354    0.7676    0.0000 C   0  0  0  0  0  0  0  0  0  0  0  0
    1.5354   -0.0574    0.0000 C   0  0  0  0  0  0  0  0  0  0  0  0
    2.2499   -0.4699    0.0000 N   0  0  0  0  0  0  0  0  0  0  0  0
    2.9644   -0.0574    0.0000 C   0  0  0  0  0  0  0  0  0  0  0  0
    3.6788    0.3551    0.0000 O   0  0  0  0  0  0  0  0  0  0  0  0
    0.8209   -0.4699    0.0000 C   0  0  0  0  0  0  0  0  0  0  0  0
    0.1065   -0.0574    0.0000 C   0  0  0  0  0  0  0  0  0  0  0  0
   -0.1757   -0.8326    0.0000 C   0  0  0  0  0  0  0  0  0  0  0  0
   -0.7060    0.0859    0.0000 C   0  0  0  0  0  0  0  0  0  0  0  0
   -0.9882    0.8611    0.0000 N   0  0  0  0  0  0  0  0  0  0  0  0
   -1.8006    1.0044    0.0000 C   0  0  0  0  0  0  0  0  0  0  0  0
   -2.6131    1.1476    0.0000 O   0  0  0  0  0  0  0  0  0  0  0  0
    0.1065    0.7676    0.0000 C   0  0  0  0  0  0  0  0  0  0  0  0
  1  2  1  0
  2  3  1  0
  2  4  1  0
  4  5  1  0
  5  6  1  0
  6  7  2  0
  7  8  2  0
  5  9  1  0
  9 10  1  0
 10 11  1  0
 10 12  1  0
 12 13  1  0
 13 14  2  0
 14 15  2  0
 10 16  1  0
  2 16  1  0
M  END
>  <id>  (148) 
1868; 1869

>  <casrn>  (148) 
4098-71-9

>  <smiles (First)>  (148) 


>  <Molecular weight>  (148) 
222.2835235595703

>  <name>  (148) 
5-isocyanato-1-(isocyanatomethyl)-1,3,3-trimethylcyclohexane

>  <Outcome>  (148) 
1

>  <Molecule (RDKit Mol) (InChI Code)>  (148) 
InChI=1S/C12H18N2O2/c1-11(2)4-10(14-9-16)5-12(3,6-11)7-13-8-15/h10H,4-7H2,1-3H3

>  <reference>  (148) 
ECHA

>  <molecule_form>  (148) 
A

>  <ID>  (148) 


>  <SMILES>  (148) 
CC1(C)CC(N=C=O)CC(C)(CN=C=O)C1

>  <ROMol>  (148) 
<rdkit.Chem.rdchem.Mol object at 0x0000027F624B1350>

$$$$

     RDKit          2D

 10 10  0  0  0  0  0  0  0  0999 V2000
    0.7145    2.0625    0.0000 C   0  0  0  0  0  0  0  0  0  0  0  0
    0.7145    1.2375    0.0000 C   0  0  0  0  0  0  0  0  0  0  0  0
    1.4289    0.8250    0.0000 C   0  0  0  0  0  0  0  0  0  0  0  0
    1.4289    0.0000    0.0000 C   0  0  0  0  0  0  0  0  0  0  0  0
    0.7145   -0.4125    0.0000 C   0  0  0  0  0  0  0  0  0  0  0  0
   -0.0000    0.0000    0.0000 C   0  0  0  0  0  0  0  0  0  0  0  0
   -0.7145   -0.4125    0.0000 N   0  0  0  0  0  0  0  0  0  0  0  0
   -0.7145   -1.2375    0.0000 C   0  0  0  0  0  0  0  0  0  0  0  0
   -0.7145   -2.0625    0.0000 O   0  0  0  0  0  0  0  0  0  0  0  0
   -0.0000    0.8250    0.0000 C   0  0  0  0  0  0  0  0  0  0  0  0
  1  2  1  0
  2  3  2  0
  3  4  1  0
  4  5  2  0
  5  6  1  0
  6  7  1  0
  7  8  2  0
  8  9  2  0
  6 10  2  0
  2 10  1  0
M  END
>  <id>  (149) 
1171

>  <casrn>  (149) 
621-29-4

>  <smiles (First)>  (149) 


>  <Molecular weight>  (149) 
133.14727783203125

>  <name>  (149) 
1-isocyanato-3-methylbenzene

>  <Outcome>  (149) 
1

>  <Molecule (RDKit Mol) (InChI Code)>  (149) 
InChI=1S/C8H7NO/c1-7-3-2-4-8(5-7)9-6-10/h2-5H,1H3

>  <reference>  (149) 
ECHA

>  <molecule_form>  (149) 
V

>  <ID>  (149) 


>  <SMILES>  (149) 
Cc1cccc(N=C=O)c1

>  <ROMol>  (149) 
<rdkit.Chem.rdchem.Mol object at 0x0000027F62463660>

$$$$

     RDKit          2D

  9  8  0  0  0  0  0  0  0  0999 V2000
    1.0723    1.4041    0.0000 O   0  0  0  0  0  0  0  0  0  0  0  0
    1.7868    1.8166    0.0000 C   0  0  0  0  0  0  0  0  0  0  0  0
    2.5013    1.4041    0.0000 C   0  0  0  0  0  0  0  0  0  0  0  0
    3.2157    1.8166    0.0000 C   0  0  0  0  0  0  0  0  0  0  0  0
    3.9302    1.4041    0.0000 C   0  0  0  0  0  0  0  0  0  0  0  0
    4.6447    1.8166    0.0000 C   0  0  0  0  0  0  0  0  0  0  0  0
    4.6447    2.6416    0.0000 O   0  0  0  0  0  0  0  0  0  0  0  0
    5.3591    1.4041    0.0000 C   0  0  0  0  0  0  0  0  0  0  0  0
    6.0736    1.8166    0.0000 O   0  0  0  0  0  0  0  0  0  0  0  0
  1  2  1  0
  2  3  1  0
  3  4  1  0
  4  5  1  0
  5  6  1  0
  6  7  1  0
  6  8  1  0
  8  9  1  0
M  END
>  <id>  (150) 
3321

>  <casrn>  (150) 
106-69-4

>  <smiles (First)>  (150) 


>  <Molecular weight>  (150) 
134.17356872558594

>  <name>  (150) 
hexane-1,2,6-triol

>  <Outcome>  (150) 
0

>  <Molecule (RDKit Mol) (InChI Code)>  (150) 
InChI=1S/C6H14O3/c7-4-2-1-3-6(9)5-8/h6-9H,1-5H2

>  <reference>  (150) 
ECHA

>  <molecule_form>  (150) 
A

>  <ID>  (150) 


>  <SMILES>  (150) 
OCCCCC(O)CO

>  <ROMol>  (150) 
<rdkit.Chem.rdchem.Mol object at 0x0000027F78E374A0>

$$$$

     RDKit          2D

  7  6  0  0  0  0  0  0  0  0999 V2000
    1.3243    2.2320    0.0000 C   0  0  0  0  0  0  0  0  0  0  0  0
    0.9118    1.5175    0.0000 C   0  0  0  0  0  0  0  0  0  0  0  0
    0.0868    1.5175    0.0000 C   0  0  0  0  0  0  0  0  0  0  0  0
    1.3243    0.8031    0.0000 C   0  0  0  0  0  0  0  0  0  0  0  0
    0.9118    0.0886    0.0000 C   0  0  0  0  0  0  0  0  0  0  0  0
    1.3243   -0.6259    0.0000 C   0  0  0  0  0  0  0  0  0  0  0  0
    0.0868    0.0886    0.0000 O   0  0  0  0  0  0  0  0  0  0  0  0
  1  2  1  0
  2  3  1  0
  2  4  1  0
  4  5  1  0
  5  6  1  0
  5  7  1  0
M  END
>  <id>  (151) 
1847

>  <casrn>  (151) 
108-11-2

>  <smiles (First)>  (151) 


>  <Molecular weight>  (151) 
102.17475891113281

>  <name>  (151) 
4-methylpentan-2-ol

>  <Outcome>  (151) 
1

>  <Molecule (RDKit Mol) (InChI Code)>  (151) 
InChI=1S/C6H14O/c1-5(2)4-6(3)7/h5-7H,4H2,1-3H3

>  <reference>  (151) 
ECHA

>  <molecule_form>  (151) 
V

>  <ID>  (151) 


>  <SMILES>  (151) 
CC(C)CC(C)O

>  <ROMol>  (151) 
<rdkit.Chem.rdchem.Mol object at 0x0000027F78E2C040>

$$$$

     RDKit          2D

 13 13  0  0  0  0  0  0  0  0999 V2000
    1.3611    1.0782    0.0000 C   0  0  0  0  0  0  0  0  0  0  0  0
    0.6466    0.6657    0.0000 C   0  0  0  0  0  0  0  0  0  0  0  0
   -0.0678    1.0782    0.0000 C   0  0  0  0  0  0  0  0  0  0  0  0
   -0.7823    0.6657    0.0000 C   0  0  0  0  0  0  0  0  0  0  0  0
   -0.7823   -0.1593    0.0000 C   0  0  0  0  0  0  0  0  0  0  0  0
   -0.0678   -0.5718    0.0000 C   0  0  0  0  0  0  0  0  0  0  0  0
    0.6466   -0.1593    0.0000 C   0  0  0  0  0  0  0  0  0  0  0  0
    1.3611   -0.5718    0.0000 N   0  0  0  0  0  0  0  0  0  0  0  0
    2.0756   -0.1593    0.0000 O   0  0  0  0  0  0  0  0  0  0  0  0
    1.3611   -1.3968    0.0000 O   0  0  0  0  0  0  0  0  0  0  0  0
   -1.4968   -0.5718    0.0000 N   0  0  0  0  0  0  0  0  0  0  0  0
   -1.4968   -1.3968    0.0000 O   0  0  0  0  0  0  0  0  0  0  0  0
   -2.2112   -0.1593    0.0000 O   0  0  0  0  0  0  0  0  0  0  0  0
  1  2  1  0
  3  2  2  0
  4  3  1  0
  5  4  2  0
  6  5  1  0
  7  6  2  0
  7  8  1  0
  8  9  1  0
  8 10  2  0
  5 11  1  0
 11 12  1  0
 11 13  2  0
  2  7  1  0
M  CHG  4   8   1   9  -1  11   1  12  -1
M  END
>  <id>  (152) 
250775

>  <casrn>  (152) 
25321-14-6

>  <smiles (First)>  (152) 
Cc1ccc(cc1[N+]([O-])=O)[N+]([O-])=O

>  <Molecular weight>  (152) 
182.133544921875

>  <name>  (152) 
Dinitrotoluene

>  <Outcome>  (152) 
1

>  <Molecule (RDKit Mol) (InChI Code)>  (152) 
InChI=1S/C7H6N2O4/c1-5-2-3-6(8(10)11)4-7(5)9(12)13/h2-4H,1H3

>  <reference>  (152) 
ToxValDB

>  <molecule_form>  (152) 
not specified

>  <ID>  (152) 


>  <SMILES>  (152) 
Cc1ccc([N+](=O)[O-])cc1[N+](=O)[O-]

>  <ROMol>  (152) 
<rdkit.Chem.rdchem.Mol object at 0x0000027F584442E0>

$$$$

     RDKit          2D

  9  8  0  0  0  0  0  0  0  0999 V2000
    1.2375    0.7145    0.0000 F   0  0  0  0  0  0  0  0  0  0  0  0
    0.8250   -0.0000    0.0000 C   0  0  0  0  0  0  0  0  0  0  0  0
    1.2375   -0.7145    0.0000 F   0  0  0  0  0  0  0  0  0  0  0  0
   -0.0000   -0.0000    0.0000 C   0  0  0  0  0  0  0  0  0  0  0  0
   -0.4125    0.7145    0.0000 F   0  0  0  0  0  0  0  0  0  0  0  0
   -0.4125   -0.7145    0.0000 C   0  0  0  0  0  0  0  0  0  0  0  0
   -0.8250   -1.4289    0.0000 F   0  0  0  0  0  0  0  0  0  0  0  0
   -1.1270   -0.3020    0.0000 F   0  0  0  0  0  0  0  0  0  0  0  0
    0.3020   -1.1270    0.0000 F   0  0  0  0  0  0  0  0  0  0  0  0
  1  2  1  0
  2  3  1  0
  2  4  2  0
  4  5  1  0
  4  6  1  0
  6  7  1  0
  6  8  1  0
  6  9  1  0
M  END
>  <id>  (153) 
3312; 3313; 3314; 3315

>  <casrn>  (153) 
116-15-4

>  <smiles (First)>  (153) 


>  <Molecular weight>  (153) 
150.02252197265625

>  <name>  (153) 
hexafluoroprop-1-ene

>  <Outcome>  (153) 
1

>  <Molecule (RDKit Mol) (InChI Code)>  (153) 
InChI=1S/C3F6/c4-1(2(5)6)3(7,8)9

>  <reference>  (153) 
ECHA

>  <molecule_form>  (153) 
G

>  <ID>  (153) 


>  <SMILES>  (153) 
FC(F)=C(F)C(F)(F)F

>  <ROMol>  (153) 
<rdkit.Chem.rdchem.Mol object at 0x0000027F5843A6D0>

$$$$

     RDKit          2D

  6  5  0  0  0  0  0  0  0  0999 V2000
   -0.1915    0.7145    0.0000 O   0  0  0  0  0  0  0  0  0  0  0  0
    0.5230    1.1270    0.0000 C   0  0  0  0  0  0  0  0  0  0  0  0
    1.2375    0.7145    0.0000 C   0  0  0  0  0  0  0  0  0  0  0  0
    1.9520    1.1270    0.0000 C   0  0  0  0  0  0  0  0  0  0  0  0
    2.6664    0.7145    0.0000 C   0  0  0  0  0  0  0  0  0  0  0  0
    3.3809    1.1270    0.0000 O   0  0  0  0  0  0  0  0  0  0  0  0
  1  2  1  0
  2  3  1  0
  3  4  1  0
  4  5  1  0
  5  6  1  0
M  END
>  <id>  (154) 
2703; 2702

>  <casrn>  (154) 
110-63-4

>  <smiles (First)>  (154) 


>  <Molecular weight>  (154) 
90.12100219726562

>  <name>  (154) 
butane-1,4-diol

>  <Outcome>  (154) 
0

>  <Molecule (RDKit Mol) (InChI Code)>  (154) 
InChI=1S/C4H10O2/c5-3-1-2-4-6/h5-6H,1-4H2

>  <reference>  (154) 
ECHA

>  <molecule_form>  (154) 
A

>  <ID>  (154) 


>  <SMILES>  (154) 
OCCCCO

>  <ROMol>  (154) 
<rdkit.Chem.rdchem.Mol object at 0x0000027F5C144970>

$$$$

     RDKit          2D

 12 12  0  0  0  0  0  0  0  0999 V2000
   -0.0558    2.5556    0.0000 C   0  0  0  0  0  0  0  0  0  0  0  0
    0.6586    2.1431    0.0000 C   0  0  0  0  0  0  0  0  0  0  0  0
    1.3731    2.5556    0.0000 C   0  0  0  0  0  0  0  0  0  0  0  0
    0.6586    1.3181    0.0000 C   0  0  0  0  0  0  0  0  0  0  0  0
    1.3731    0.9056    0.0000 C   0  0  0  0  0  0  0  0  0  0  0  0
    1.3731    0.0806    0.0000 C   0  0  0  0  0  0  0  0  0  0  0  0
    0.6586   -0.3319    0.0000 C   0  0  0  0  0  0  0  0  0  0  0  0
    0.6586   -1.1569    0.0000 N   0  0  0  0  0  0  0  0  0  0  0  0
    1.3731   -1.5694    0.0000 C   0  0  0  0  0  0  0  0  0  0  0  0
    2.0876   -1.9819    0.0000 O   0  0  0  0  0  0  0  0  0  0  0  0
   -0.0558    0.0806    0.0000 C   0  0  0  0  0  0  0  0  0  0  0  0
   -0.0558    0.9056    0.0000 C   0  0  0  0  0  0  0  0  0  0  0  0
  1  2  1  0
  2  3  1  0
  2  4  1  0
  4  5  2  0
  5  6  1  0
  6  7  2  0
  7  8  1  0
  8  9  2  0
  9 10  2  0
  7 11  1  0
 11 12  2  0
  4 12  1  0
M  END
>  <id>  (155) 
1173

>  <casrn>  (155) 
31027-31-3

>  <smiles (First)>  (155) 


>  <Molecular weight>  (155) 
161.200439453125

>  <name>  (155) 
1-isocyanato-4-(propan-2-yl)benzene

>  <Outcome>  (155) 
1

>  <Molecule (RDKit Mol) (InChI Code)>  (155) 
InChI=1S/C10H11NO/c1-8(2)9-3-5-10(6-4-9)11-7-12/h3-6,8H,1-2H3

>  <reference>  (155) 
ECHA

>  <molecule_form>  (155) 
A

>  <ID>  (155) 


>  <SMILES>  (155) 
CC(C)c1ccc(N=C=O)cc1

>  <ROMol>  (155) 
<rdkit.Chem.rdchem.Mol object at 0x0000027F5846E3C0>

$$$$

     RDKit          2D

  5  5  0  0  0  0  0  0  0  0999 V2000
    1.2631   -1.0721    0.0000 C   0  0  0  0  0  0  0  0  0  0  0  0
    1.2631   -0.2471    0.0000 C   0  0  0  0  0  0  0  0  0  0  0  0
    0.5486    0.1654    0.0000 C   0  0  0  0  0  0  0  0  0  0  0  0
    0.1361    0.8799    0.0000 C   0  0  0  0  0  0  0  0  0  0  0  0
   -0.2764    0.1654    0.0000 O   0  0  0  0  0  0  0  0  0  0  0  0
  1  2  1  0
  2  3  1  0
  4  3  1  0
  5  4  1  0
  3  5  1  0
M  END
>  <id>  (156) 
201748

>  <casrn>  (156) 
106-88-7

>  <smiles (First)>  (156) 
CCC1CO1

>  <Molecular weight>  (156) 
72.10572052001953

>  <name>  (156) 
1,2-Epoxybutane

>  <Outcome>  (156) 
0

>  <Molecule (RDKit Mol) (InChI Code)>  (156) 
InChI=1S/C4H8O/c1-2-4-3-5-4/h4H,2-3H2,1H3

>  <reference>  (156) 
ToxValDB

>  <molecule_form>  (156) 
not specified

>  <ID>  (156) 


>  <SMILES>  (156) 
CCC1CO1

>  <ROMol>  (156) 
<rdkit.Chem.rdchem.Mol object at 0x0000027F58444970>

$$$$

     RDKit          2D

 14 14  0  0  0  0  0  0  0  0999 V2000
    0.7881    3.0837    0.0000 C   0  0  0  0  0  0  0  0  0  0  0  0
    0.7881    2.2587    0.0000 C   0  0  0  0  0  0  0  0  0  0  0  0
   -0.0369    2.2587    0.0000 C   0  0  0  0  0  0  0  0  0  0  0  0
    1.6131    2.2587    0.0000 C   0  0  0  0  0  0  0  0  0  0  0  0
    0.7881    1.4337    0.0000 C   0  0  0  0  0  0  0  0  0  0  0  0
    1.5026    1.0212    0.0000 C   0  0  0  0  0  0  0  0  0  0  0  0
    1.5026    0.1962    0.0000 C   0  0  0  0  0  0  0  0  0  0  0  0
    0.7881   -0.2163    0.0000 C   0  0  0  0  0  0  0  0  0  0  0  0
    0.7881   -1.0413    0.0000 O   0  0  0  0  0  0  0  0  0  0  0  0
    0.0737   -1.4538    0.0000 C   0  0  0  0  0  0  0  0  0  0  0  0
    0.0737   -2.2788    0.0000 O   0  0  0  0  0  0  0  0  0  0  0  0
   -0.6408   -1.0413    0.0000 Cl  0  0  0  0  0  0  0  0  0  0  0  0
    0.0737    0.1962    0.0000 C   0  0  0  0  0  0  0  0  0  0  0  0
    0.0737    1.0212    0.0000 C   0  0  0  0  0  0  0  0  0  0  0  0
  1  2  1  0
  2  3  1  0
  2  4  1  0
  2  5  1  0
  5  6  1  0
  6  7  1  0
  7  8  1  0
  8  9  1  0
  9 10  1  0
 10 11  2  0
 10 12  1  0
  8 13  1  0
 13 14  1  0
  5 14  1  0
M  END
>  <id>  (157) 
1852

>  <casrn>  (157) 
42125-46-2

>  <smiles (First)>  (157) 


>  <Molecular weight>  (157) 
218.72036743164062

>  <name>  (157) 
4-tert-butylcyclohexyl chlorocarbonate

>  <Outcome>  (157) 
1

>  <Molecule (RDKit Mol) (InChI Code)>  (157) 
InChI=1S/C11H19ClO2/c1-11(2,3)8-4-6-9(7-5-8)14-10(12)13/h8-9H,4-7H2,1-3H3

>  <reference>  (157) 
ECHA

>  <molecule_form>  (157) 
A

>  <ID>  (157) 


>  <SMILES>  (157) 
CC(C)(C)C1CCC(OC(=O)Cl)CC1

>  <ROMol>  (157) 
<rdkit.Chem.rdchem.Mol object at 0x0000027F584AC900>

$$$$

     RDKit          2D

 21 22  0  0  0  0  0  0  0  0999 V2000
    3.5724   -2.8865    0.0000 C   0  0  0  0  0  0  0  0  0  0  0  0
    3.5724   -3.7115    0.0000 C   0  0  0  0  0  0  0  0  0  0  0  0
    2.8579   -4.1240    0.0000 C   0  0  0  0  0  0  0  0  0  0  0  0
    2.1434   -3.7115    0.0000 O   0  0  0  0  0  0  0  0  0  0  0  0
    1.4289   -4.1240    0.0000 C   0  0  0  0  0  0  0  0  0  0  0  0
    1.4289   -4.9490    0.0000 O   0  0  0  0  0  0  0  0  0  0  0  0
    0.7145   -3.7115    0.0000 C   0  0  0  0  0  0  0  0  0  0  0  0
    0.0000   -4.1240    0.0000 C   0  0  0  0  0  0  0  0  0  0  0  0
   -0.7145   -3.7115    0.0000 C   0  0  0  0  0  0  0  0  0  0  0  0
   -0.7145   -2.8865    0.0000 C   0  0  0  0  0  0  0  0  0  0  0  0
    0.0000   -2.4740    0.0000 C   0  0  0  0  0  0  0  0  0  0  0  0
    0.7145   -2.8865    0.0000 C   0  0  0  0  0  0  0  0  0  0  0  0
    4.2868   -4.1240    0.0000 O   0  0  0  0  0  0  0  0  0  0  0  0
    5.0013   -3.7115    0.0000 C   0  0  0  0  0  0  0  0  0  0  0  0
    5.0013   -2.8865    0.0000 O   0  0  0  0  0  0  0  0  0  0  0  0
    5.7158   -4.1240    0.0000 C   0  0  0  0  0  0  0  0  0  0  0  0
    6.4302   -3.7115    0.0000 C   0  0  0  0  0  0  0  0  0  0  0  0
    7.1447   -4.1240    0.0000 C   0  0  0  0  0  0  0  0  0  0  0  0
    7.1447   -4.9490    0.0000 C   0  0  0  0  0  0  0  0  0  0  0  0
    6.4302   -5.3615    0.0000 C   0  0  0  0  0  0  0  0  0  0  0  0
    5.7158   -4.9490    0.0000 C   0  0  0  0  0  0  0  0  0  0  0  0
  1  2  1  0
  2  3  1  0
  3  4  1  0
  4  5  1  0
  5  6  2  0
  5  7  1  0
  7  8  2  0
  8  9  1  0
  9 10  2  0
 10 11  1  0
 11 12  2  0
  7 12  1  0
  2 13  1  0
 13 14  1  0
 14 15  2  0
 14 16  1  0
 16 17  2  0
 17 18  1  0
 18 19  2  0
 19 20  1  0
 20 21  2  0
 16 21  1  0
M  END
>  <id>  (158) 
3805

>  <casrn>  (158) 
19224-26-1

>  <smiles (First)>  (158) 


>  <Molecular weight>  (158) 
284.3065490722656

>  <name>  (158) 
propane-1,2-diyl dibenzoate

>  <Outcome>  (158) 
0

>  <Molecule (RDKit Mol) (InChI Code)>  (158) 
InChI=1S/C17H16O4/c1-13(21-17(19)15-10-6-3-7-11-15)12-20-16(18)14-8-4-2-5-9-14/h2-11,13H,12H2,1H3

>  <reference>  (158) 
ECHA

>  <molecule_form>  (158) 
A

>  <ID>  (158) 


>  <SMILES>  (158) 
CC(COC(=O)c1ccccc1)OC(=O)c1ccccc1

>  <ROMol>  (158) 
<rdkit.Chem.rdchem.Mol object at 0x0000027F5C149890>

$$$$

     RDKit          2D

  5  4  0  0  0  0  0  0  0  0999 V2000
    0.8446    1.4911    0.0000 C   0  0  0  0  0  0  0  0  0  0  0  0
    1.2571    0.7766    0.0000 N   0  0  0  0  0  0  0  0  0  0  0  0
    0.8446    0.0621    0.0000 C   0  0  0  0  0  0  0  0  0  0  0  0
    1.2571   -0.6523    0.0000 C   0  0  0  0  0  0  0  0  0  0  0  0
    0.0196    0.0621    0.0000 C   0  0  0  0  0  0  0  0  0  0  0  0
  1  2  1  0
  2  3  1  0
  3  4  1  0
  3  5  1  0
M  END
>  <id>  (159) 
2418

>  <casrn>  (159) 
4747-21-1

>  <smiles (First)>  (159) 


>  <Molecular weight>  (159) 
73.1368408203125

>  <name>  (159) 
N-methylpropan-2-amine

>  <Outcome>  (159) 
1

>  <Molecule (RDKit Mol) (InChI Code)>  (159) 
InChI=1S/C4H11N/c1-4(2)5-3/h4-5H,1-3H3

>  <reference>  (159) 
ECHA

>  <molecule_form>  (159) 
V

>  <ID>  (159) 


>  <SMILES>  (159) 
CNC(C)C

>  <ROMol>  (159) 
<rdkit.Chem.rdchem.Mol object at 0x0000027F584D5270>

$$$$

     RDKit          2D

  8  7  0  0  0  0  0  0  0  0999 V2000
   -0.2183    0.7787    0.0000 C   0  0  0  0  0  0  0  0  0  0  0  0
    0.4961    1.1912    0.0000 C   0  0  0  0  0  0  0  0  0  0  0  0
    1.2106    0.7787    0.0000 N   0  0  0  0  0  0  0  0  0  0  0  0
    1.2106   -0.0463    0.0000 C   0  0  0  0  0  0  0  0  0  0  0  0
    0.4961   -0.4588    0.0000 C   0  0  0  0  0  0  0  0  0  0  0  0
    1.9251    1.1912    0.0000 C   0  0  0  0  0  0  0  0  0  0  0  0
    2.6395    0.7787    0.0000 C   0  0  0  0  0  0  0  0  0  0  0  0
    3.3540    1.1912    0.0000 O   0  0  0  0  0  0  0  0  0  0  0  0
  1  2  1  0
  2  3  1  0
  3  4  1  0
  4  5  1  0
  3  6  1  0
  6  7  1  0
  7  8  1  0
M  END
>  <id>  (160) 
1337

>  <casrn>  (160) 
100-37-8

>  <smiles (First)>  (160) 


>  <Molecular weight>  (160) 
117.18939971923828

>  <name>  (160) 
2-(diethylamino)ethan-1-ol

>  <Outcome>  (160) 
1

>  <Molecule (RDKit Mol) (InChI Code)>  (160) 
InChI=1S/C6H15NO/c1-3-7(4-2)5-6-8/h8H,3-6H2,1-2H3

>  <reference>  (160) 
ECHA

>  <molecule_form>  (160) 
V

>  <ID>  (160) 


>  <SMILES>  (160) 
CCN(CC)CCO

>  <ROMol>  (160) 
<rdkit.Chem.rdchem.Mol object at 0x0000027F6246B6D0>

$$$$

     RDKit          2D

  8  7  0  0  0  0  0  0  0  0999 V2000
    1.6438    1.8848    0.0000 C   0  0  0  0  0  0  0  0  0  0  0  0
    2.3583    1.4723    0.0000 C   0  0  0  0  0  0  0  0  0  0  0  0
    3.0727    1.8848    0.0000 C   0  0  0  0  0  0  0  0  0  0  0  0
    3.0727    2.7098    0.0000 C   0  0  0  0  0  0  0  0  0  0  0  0
    3.7872    1.4723    0.0000 N   0  0  0  0  0  0  0  0  0  0  0  0
    4.5017    1.8848    0.0000 C   0  0  0  0  0  0  0  0  0  0  0  0
    5.2161    1.4723    0.0000 C   0  0  0  0  0  0  0  0  0  0  0  0
    5.9306    1.8848    0.0000 O   0  0  0  0  0  0  0  0  0  0  0  0
  1  2  1  0
  2  3  1  0
  3  4  1  0
  3  5  1  0
  5  6  1  0
  6  7  1  0
  7  8  1  0
M  END
>  <id>  (161) 
1357

>  <casrn>  (161) 
35265-04-4

>  <smiles (First)>  (161) 


>  <Molecular weight>  (161) 
117.18939971923828

>  <name>  (161) 
2-(sec-butylamino)ethanol

>  <Outcome>  (161) 
1

>  <Molecule (RDKit Mol) (InChI Code)>  (161) 
InChI=1S/C6H15NO/c1-3-6(2)7-4-5-8/h6-8H,3-5H2,1-2H3

>  <reference>  (161) 
ECHA

>  <molecule_form>  (161) 
V

>  <ID>  (161) 


>  <SMILES>  (161) 
CCC(C)NCCO

>  <ROMol>  (161) 
<rdkit.Chem.rdchem.Mol object at 0x0000027F584AC660>

$$$$

     RDKit          2D

  9  8  0  0  0  0  0  0  0  0999 V2000
    1.7605    1.8396    0.0000 C   0  0  0  0  0  0  0  0  0  0  0  0
    2.4750    1.4271    0.0000 C   0  0  0  0  0  0  0  0  0  0  0  0
    3.1895    1.8396    0.0000 C   0  0  0  0  0  0  0  0  0  0  0  0
    3.9040    1.4271    0.0000 O   0  0  0  0  0  0  0  0  0  0  0  0
    4.6184    1.8396    0.0000 C   0  0  0  0  0  0  0  0  0  0  0  0
    4.6184    2.6646    0.0000 O   0  0  0  0  0  0  0  0  0  0  0  0
    5.3329    1.4271    0.0000 C   0  0  0  0  0  0  0  0  0  0  0  0
    6.0474    1.8396    0.0000 C   0  0  0  0  0  0  0  0  0  0  0  0
    5.3329    0.6021    0.0000 C   0  0  0  0  0  0  0  0  0  0  0  0
  1  2  2  0
  2  3  1  0
  3  4  1  0
  4  5  1  0
  5  6  2  0
  5  7  1  0
  7  8  2  0
  7  9  1  0
M  END
>  <id>  (162) 
3770; 3771

>  <casrn>  (162) 
96-05-9

>  <smiles (First)>  (162) 


>  <Molecular weight>  (162) 
126.15310668945312

>  <name>  (162) 
prop-2-en-1-yl 2-methylprop-2-enoate

>  <Outcome>  (162) 
1

>  <Molecule (RDKit Mol) (InChI Code)>  (162) 
InChI=1S/C7H10O2/c1-4-5-9-7(8)6(2)3/h4H,1-2,5H2,3H3

>  <reference>  (162) 
ECHA

>  <molecule_form>  (162) 
V

>  <ID>  (162) 


>  <SMILES>  (162) 
C=CCOC(=O)C(=C)C

>  <ROMol>  (162) 
<rdkit.Chem.rdchem.Mol object at 0x0000027F589055F0>

$$$$

     RDKit          2D

  7  6  0  0  0  0  0  0  0  0999 V2000
    1.3723   -0.7806    0.0000 C   0  0  0  0  0  0  0  0  0  0  0  0
    0.9598   -0.0661    0.0000 O   0  0  0  0  0  0  0  0  0  0  0  0
    0.1348   -0.0661    0.0000 B   0  0  0  0  0  0  0  0  0  0  0  0
   -0.2777    0.6483    0.0000 O   0  0  0  0  0  0  0  0  0  0  0  0
   -1.1027    0.6483    0.0000 C   0  0  0  0  0  0  0  0  0  0  0  0
   -0.2777   -0.7806    0.0000 O   0  0  0  0  0  0  0  0  0  0  0  0
   -1.1027   -0.7806    0.0000 C   0  0  0  0  0  0  0  0  0  0  0  0
  1  2  1  0
  2  3  1  0
  3  4  1  0
  4  5  1  0
  3  6  1  0
  6  7  1  0
M  END
>  <id>  (163) 
217661; 217750

>  <casrn>  (163) 
121-43-7

>  <smiles (First)>  (163) 
COB(OC)OC

>  <Molecular weight>  (163) 
103.91276550292969

>  <name>  (163) 
Trimethyl borate

>  <Outcome>  (163) 
0

>  <Molecule (RDKit Mol) (InChI Code)>  (163) 
InChI=1S/C3H9BO3/c1-5-4(6-2)7-3/h1-3H3

>  <reference>  (163) 
ToxValDB

>  <molecule_form>  (163) 
not specified

>  <ID>  (163) 


>  <SMILES>  (163) 
COB(OC)OC

>  <ROMol>  (163) 
<rdkit.Chem.rdchem.Mol object at 0x0000027F78E26890>

$$$$

     RDKit          2D

 32 36  0  0  0  0  0  0  0  0999 V2000
    3.6542   -1.1628    0.0000 N   0  0  0  0  0  0  0  0  0  0  0  0
    3.6542   -0.3378    0.0000 C   0  0  0  0  0  0  0  0  0  0  0  0
    4.3687    0.0747    0.0000 C   0  0  0  0  0  0  0  0  0  0  0  0
    5.0831   -0.3378    0.0000 O   0  0  0  0  0  0  0  0  0  0  0  0
    5.7976    0.0747    0.0000 C   0  0  0  0  0  0  0  0  0  0  0  0
    5.7976    0.8997    0.0000 C   0  0  0  0  0  0  0  0  0  0  0  0
    6.5121    1.3122    0.0000 C   0  0  0  0  0  0  0  0  0  0  0  0
    7.2265    0.8997    0.0000 C   0  0  0  0  0  0  0  0  0  0  0  0
    7.2265    0.0747    0.0000 C   0  0  0  0  0  0  0  0  0  0  0  0
    6.5121   -0.3378    0.0000 C   0  0  0  0  0  0  0  0  0  0  0  0
    4.3687    0.8997    0.0000 C   0  0  0  0  0  0  0  0  0  0  0  0
    5.0831    1.3122    0.0000 O   0  0  0  0  0  0  0  0  0  0  0  0
    5.0831    2.1372    0.0000 C   0  0  0  0  0  0  0  0  0  0  0  0
    4.3687    2.5497    0.0000 C   0  0  0  0  0  0  0  0  0  0  0  0
    4.3687    3.3747    0.0000 C   0  0  0  0  0  0  0  0  0  0  0  0
    5.0831    3.7872    0.0000 C   0  0  0  0  0  0  0  0  0  0  0  0
    5.7976    3.3747    0.0000 C   0  0  0  0  0  0  0  0  0  0  0  0
    5.7976    2.5497    0.0000 C   0  0  0  0  0  0  0  0  0  0  0  0
    3.6542    1.3122    0.0000 C   0  0  0  0  0  0  0  0  0  0  0  0
    3.6542    2.1372    0.0000 N   0  0  0  0  0  0  0  0  0  0  0  0
    2.9397    0.8997    0.0000 C   0  0  0  0  0  0  0  0  0  0  0  0
    2.9397    0.0747    0.0000 C   0  0  0  0  0  0  0  0  0  0  0  0
    2.2252   -0.3378    0.0000 C   0  0  0  0  0  0  0  0  0  0  0  0
    2.2252   -1.1628    0.0000 O   0  0  0  0  0  0  0  0  0  0  0  0
    1.5108    0.0747    0.0000 C   0  0  0  0  0  0  0  0  0  0  0  0
    0.7963   -0.3378    0.0000 C   0  0  0  0  0  0  0  0  0  0  0  0
    0.0818    0.0747    0.0000 C   0  0  0  0  0  0  0  0  0  0  0  0
    0.0818    0.8997    0.0000 C   0  0  0  0  0  0  0  0  0  0  0  0
    0.7963    1.3122    0.0000 C   0  0  0  0  0  0  0  0  0  0  0  0
    1.5108    0.8997    0.0000 C   0  0  0  0  0  0  0  0  0  0  0  0
    2.2252    1.3122    0.0000 C   0  0  0  0  0  0  0  0  0  0  0  0
    2.2252    2.1372    0.0000 O   0  0  0  0  0  0  0  0  0  0  0  0
  1  2  1  0
  2  3  2  0
  3  4  1  0
  4  5  1  0
  5  6  2  0
  6  7  1  0
  7  8  2  0
  8  9  1  0
  9 10  2  0
  5 10  1  0
  3 11  1  0
 11 12  1  0
 12 13  1  0
 13 14  2  0
 14 15  1  0
 15 16  2  0
 16 17  1  0
 17 18  2  0
 13 18  1  0
 11 19  2  0
 19 20  1  0
 19 21  1  0
 21 22  2  0
  2 22  1  0
 22 23  1  0
 23 24  2  0
 23 25  1  0
 25 26  2  0
 26 27  1  0
 27 28  2  0
 28 29  1  0
 29 30  2  0
 25 30  1  0
 30 31  1  0
 21 31  1  0
 31 32  2  0
M  END
>  <id>  (164) 
1053

>  <casrn>  (164) 
6408-72-6

>  <smiles (First)>  (164) 


>  <Molecular weight>  (164) 
422.43212890625

>  <name>  (164) 
1,4-diamino-2,3-diphenoxy-9,10-dihydroanthracene-9,10-dione

>  <Outcome>  (164) 
0

>  <Molecule (RDKit Mol) (InChI Code)>  (164) 
InChI=1S/C26H18N2O4/c27-21-19-20(24(30)18-14-8-7-13-17(18)23(19)29)22(28)26(32-16-11-5-2-6-12-16)25(21)31-15-9-3-1-4-10-15/h1-14H,27-28H2

>  <reference>  (164) 
ECHA

>  <molecule_form>  (164) 
A

>  <ID>  (164) 


>  <SMILES>  (164) 
Nc1c(Oc2ccccc2)c(Oc2ccccc2)c(N)c2c1C(=O)c1ccccc1C2=O

>  <ROMol>  (164) 
<rdkit.Chem.rdchem.Mol object at 0x0000027F583F44A0>

$$$$

     RDKit          2D

  6  5  0  0  0  0  0  0  0  0999 V2000
    0.8220   -1.4340    0.0000 O   0  0  0  0  0  0  0  0  0  0  0  0
    1.2345   -0.7195    0.0000 C   0  0  0  0  0  0  0  0  0  0  0  0
    2.0595   -0.7195    0.0000 C   0  0  0  0  0  0  0  0  0  0  0  0
    2.4720   -1.4340    0.0000 O   0  0  0  0  0  0  0  0  0  0  0  0
    0.8220   -0.0051    0.0000 C   0  0  0  0  0  0  0  0  0  0  0  0
   -0.0030   -0.0051    0.0000 O   0  0  0  0  0  0  0  0  0  0  0  0
  1  2  2  0
  2  3  1  0
  3  4  1  0
  2  5  1  0
  5  6  1  0
M  END
>  <id>  (165) 
991

>  <casrn>  (165) 
96-26-4

>  <smiles (First)>  (165) 


>  <Molecular weight>  (165) 
90.07794189453125

>  <name>  (165) 
1,3-dihydroxypropan-2-one

>  <Outcome>  (165) 
0

>  <Molecule (RDKit Mol) (InChI Code)>  (165) 
InChI=1S/C3H6O3/c4-1-3(6)2-5/h4-5H,1-2H2

>  <reference>  (165) 
ECHA

>  <molecule_form>  (165) 
A

>  <ID>  (165) 


>  <SMILES>  (165) 
O=C(CO)CO

>  <ROMol>  (165) 
<rdkit.Chem.rdchem.Mol object at 0x0000027F5C149820>

$$$$

     RDKit          2D

  6  5  0  0  0  0  0  0  0  0999 V2000
    2.5376   -1.4669    0.0000 C   0  0  0  0  0  0  0  0  0  0  0  0
    2.1251   -0.7525    0.0000 C   0  0  0  0  0  0  0  0  0  0  0  0
    1.3001   -0.7525    0.0000 C   0  0  0  0  0  0  0  0  0  0  0  0
    0.8876   -1.4669    0.0000 C   0  0  0  0  0  0  0  0  0  0  0  0
    0.8876   -0.0380    0.0000 C   0  0  0  0  0  0  0  0  0  0  0  0
    0.0626   -0.0380    0.0000 O   0  0  0  0  0  0  0  0  0  0  0  0
  1  2  1  0
  2  3  1  0
  3  4  1  0
  3  5  1  0
  5  6  2  0
M  END
>  <id>  (166) 
1514

>  <casrn>  (166) 
96-17-3

>  <smiles (First)>  (166) 


>  <Molecular weight>  (166) 
86.1323013305664

>  <name>  (166) 
2-methylbutanal

>  <Outcome>  (166) 
0

>  <Molecule (RDKit Mol) (InChI Code)>  (166) 
InChI=1S/C5H10O/c1-3-5(2)4-6/h4-5H,3H2,1-2H3

>  <reference>  (166) 
ECHA

>  <molecule_form>  (166) 
V

>  <ID>  (166) 


>  <SMILES>  (166) 
CCC(C)C=O

>  <ROMol>  (166) 
<rdkit.Chem.rdchem.Mol object at 0x0000027F6246B200>

$$$$

     RDKit          2D

 20 20  0  0  0  0  0  0  0  0999 V2000
   -1.4297   -4.1238    0.0000 C   0  0  0  0  0  0  0  0  0  0  0  0
   -0.7152   -3.7113    0.0000 C   0  0  0  0  0  0  0  0  0  0  0  0
   -0.7152   -2.8863    0.0000 C   0  0  0  0  0  0  0  0  0  0  0  0
   -0.0007   -2.4738    0.0000 C   0  0  0  0  0  0  0  0  0  0  0  0
   -0.0007   -1.6488    0.0000 O   0  0  0  0  0  0  0  0  0  0  0  0
    0.7137   -1.2363    0.0000 C   0  0  0  0  0  0  0  0  0  0  0  0
    1.4282   -1.6488    0.0000 O   0  0  0  0  0  0  0  0  0  0  0  0
    0.7137   -0.4113    0.0000 C   0  0  0  0  0  0  0  0  0  0  0  0
   -0.0007    0.0012    0.0000 C   0  0  0  0  0  0  0  0  0  0  0  0
   -0.0007    0.8262    0.0000 C   0  0  0  0  0  0  0  0  0  0  0  0
    0.7137    1.2387    0.0000 C   0  0  0  0  0  0  0  0  0  0  0  0
    1.4282    0.8262    0.0000 C   0  0  0  0  0  0  0  0  0  0  0  0
    1.4282    0.0012    0.0000 C   0  0  0  0  0  0  0  0  0  0  0  0
    2.1427   -0.4113    0.0000 C   0  0  0  0  0  0  0  0  0  0  0  0
    2.1427   -1.2363    0.0000 O   0  0  0  0  0  0  0  0  0  0  0  0
    2.8572    0.0012    0.0000 O   0  0  0  0  0  0  0  0  0  0  0  0
    3.5716   -0.4113    0.0000 C   0  0  0  0  0  0  0  0  0  0  0  0
    4.2861    0.0012    0.0000 C   0  0  0  0  0  0  0  0  0  0  0  0
    5.0006   -0.4113    0.0000 C   0  0  0  0  0  0  0  0  0  0  0  0
    5.7150    0.0012    0.0000 C   0  0  0  0  0  0  0  0  0  0  0  0
  1  2  1  0
  2  3  1  0
  3  4  1  0
  4  5  1  0
  5  6  1  0
  6  7  2  0
  6  8  1  0
  8  9  2  0
  9 10  1  0
 10 11  2  0
 11 12  1  0
 12 13  2  0
  8 13  1  0
 13 14  1  0
 14 15  2  0
 14 16  1  0
 16 17  1  0
 17 18  1  0
 18 19  1  0
 19 20  1  0
M  END
>  <id>  (167) 
925

>  <casrn>  (167) 
84-74-2

>  <smiles (First)>  (167) 


>  <Molecular weight>  (167) 
278.3434753417969

>  <name>  (167) 
1,2-dibutyl benzene-1,2-dicarboxylate

>  <Outcome>  (167) 
0

>  <Molecule (RDKit Mol) (InChI Code)>  (167) 
InChI=1S/C16H22O4/c1-3-5-11-19-15(17)13-9-7-8-10-14(13)16(18)20-12-6-4-2/h7-10H,3-6,11-12H2,1-2H3

>  <reference>  (167) 
ECHA

>  <molecule_form>  (167) 
A

>  <ID>  (167) 


>  <SMILES>  (167) 
CCCCOC(=O)c1ccccc1C(=O)OCCCC

>  <ROMol>  (167) 
<rdkit.Chem.rdchem.Mol object at 0x0000027F584372E0>

$$$$

     RDKit          2D

 15 15  0  0  0  0  0  0  0  0999 V2000
    1.2762    1.9380    0.0000 C   0  0  0  0  0  0  0  0  0  0  0  0
    0.7242    1.3249    0.0000 C   0  0  0  0  0  0  0  0  0  0  0  0
    0.1721    1.9380    0.0000 C   0  0  0  0  0  0  0  0  0  0  0  0
    1.3916    0.8400    0.0000 C   0  0  0  0  0  0  0  0  0  0  0  0
    2.1762    1.0949    0.0000 O   0  0  0  0  0  0  0  0  0  0  0  0
    1.1367    0.0554    0.0000 N   0  0  0  0  0  0  0  0  0  0  0  0
    1.6216   -0.6121    0.0000 C   0  0  0  0  0  0  0  0  0  0  0  0
    2.4421   -0.5258    0.0000 C   0  0  0  0  0  0  0  0  0  0  0  0
    2.9270   -1.1933    0.0000 O   0  0  0  0  0  0  0  0  0  0  0  0
    0.3117    0.0554    0.0000 C   0  0  0  0  0  0  0  0  0  0  0  0
   -0.1733   -0.6121    0.0000 O   0  0  0  0  0  0  0  0  0  0  0  0
    0.0567    0.8400    0.0000 N   0  0  0  0  0  0  0  0  0  0  0  0
   -0.7279    1.0949    0.0000 C   0  0  0  0  0  0  0  0  0  0  0  0
   -0.8994    1.9019    0.0000 C   0  0  0  0  0  0  0  0  0  0  0  0
   -1.6841    2.1568    0.0000 O   0  0  0  0  0  0  0  0  0  0  0  0
  1  2  1  0
  2  3  1  0
  2  4  1  0
  4  5  2  0
  4  6  1  0
  6  7  1  0
  7  8  1  0
  8  9  1  0
  6 10  1  0
 10 11  2  0
 10 12  1  0
  2 12  1  0
 12 13  1  0
 13 14  1  0
 14 15  1  0
M  END
>  <id>  (168) 
971

>  <casrn>  (168) 
26850-24-8

>  <smiles (First)>  (168) 


>  <Molecular weight>  (168) 
216.23434448242188

>  <name>  (168) 
1,3-bis(2-hydroxyethyl)-5,5-dimethylimidazolidine-2,4-dione

>  <Outcome>  (168) 
0

>  <Molecule (RDKit Mol) (InChI Code)>  (168) 
InChI=1S/C9H16N2O4/c1-9(2)7(14)10(3-5-12)8(15)11(9)4-6-13/h12-13H,3-6H2,1-2H3

>  <reference>  (168) 
ECHA

>  <molecule_form>  (168) 
A

>  <ID>  (168) 


>  <SMILES>  (168) 
CC1(C)C(=O)N(CCO)C(=O)N1CCO

>  <ROMol>  (168) 
<rdkit.Chem.rdchem.Mol object at 0x0000027F5842F190>

$$$$

     RDKit          2D

 28 29  0  0  0  0  0  0  0  0999 V2000
   -0.6530   -1.2371    0.0000 C   0  0  0  0  0  0  0  0  0  0  0  0
   -0.6530   -2.0621    0.0000 C   0  0  0  0  0  0  0  0  0  0  0  0
   -1.3675   -2.4746    0.0000 O   0  0  0  0  0  0  0  0  0  0  0  0
   -1.3675   -3.2996    0.0000 C   0  0  0  0  0  0  0  0  0  0  0  0
   -0.6530   -3.7121    0.0000 N   0  0  0  0  0  0  0  0  0  0  0  0
   -0.6530   -4.5371    0.0000 C   0  0  0  0  0  0  0  0  0  0  0  0
    0.0614   -4.9496    0.0000 N   0  0  0  0  0  0  0  0  0  0  0  0
    0.0614   -5.7746    0.0000 C   0  0  0  0  0  0  0  0  0  0  0  0
   -1.3675   -4.9496    0.0000 N   0  0  0  0  0  0  0  0  0  0  0  0
   -2.0820   -4.5371    0.0000 C   0  0  0  0  0  0  0  0  0  0  0  0
   -2.7964   -4.9496    0.0000 N   0  0  0  0  0  0  0  0  0  0  0  0
   -2.7964   -5.7746    0.0000 C   0  0  0  0  0  0  0  0  0  0  0  0
   -2.0820   -6.1871    0.0000 O   0  0  0  0  0  0  0  0  0  0  0  0
   -3.5109   -6.1871    0.0000 N   0  0  0  0  0  0  0  0  0  0  0  0
   -3.5109   -7.0121    0.0000 S   0  0  0  0  0  0  0  0  0  0  0  0
   -4.3359   -7.0121    0.0000 O   0  0  0  0  0  0  0  0  0  0  0  0
   -2.6859   -7.0121    0.0000 O   0  0  0  0  0  0  0  0  0  0  0  0
   -3.5109   -7.8371    0.0000 C   0  0  0  0  0  0  0  0  0  0  0  0
   -2.7964   -8.2496    0.0000 C   0  0  0  0  0  0  0  0  0  0  0  0
   -2.7964   -9.0746    0.0000 C   0  0  0  0  0  0  0  0  0  0  0  0
   -3.5109   -9.4871    0.0000 C   0  0  0  0  0  0  0  0  0  0  0  0
   -4.2254   -9.0746    0.0000 C   0  0  0  0  0  0  0  0  0  0  0  0
   -4.2254   -8.2496    0.0000 C   0  0  0  0  0  0  0  0  0  0  0  0
   -4.9399   -7.8371    0.0000 C   0  0  0  0  0  0  0  0  0  0  0  0
   -4.9399   -7.0121    0.0000 O   0  0  0  0  0  0  0  0  0  0  0  0
   -5.6543   -8.2496    0.0000 O   0  0  0  0  0  0  0  0  0  0  0  0
   -5.6543   -9.0746    0.0000 C   0  0  0  0  0  0  0  0  0  0  0  0
   -2.0820   -3.7121    0.0000 N   0  0  0  0  0  0  0  0  0  0  0  0
  1  2  1  0
  2  3  1  0
  3  4  1  0
  4  5  2  0
  5  6  1  0
  6  7  1  0
  7  8  1  0
  6  9  2  0
  9 10  1  0
 10 11  1  0
 11 12  1  0
 12 13  2  0
 12 14  1  0
 14 15  1  0
 15 16  2  0
 15 17  2  0
 15 18  1  0
 18 19  2  0
 19 20  1  0
 20 21  2  0
 21 22  1  0
 22 23  2  0
 18 23  1  0
 23 24  1  0
 24 25  2  0
 24 26  1  0
 26 27  1  0
 10 28  2  0
  4 28  1  0
M  END
>  <id>  (169) 
4322

>  <casrn>  (169) 
97780-06-8

>  <smiles (First)>  (169) 


>  <Molecular weight>  (169) 
410.405029296875

>  <name>  (169) 
unnamed [97780-06-8]

>  <Outcome>  (169) 
0

>  <Molecule (RDKit Mol) (InChI Code)>  (169) 
InChI=1S/C15H18N6O6S/c1-4-27-15-19-12(16-2)17-13(20-15)18-14(23)21-28(24,25)10-8-6-5-7-9(10)11(22)26-3/h5-8H,4H2,1-3H3,(H3,16,17,18,19,20,21,23)

>  <reference>  (169) 
ECHA

>  <molecule_form>  (169) 
A

>  <ID>  (169) 


>  <SMILES>  (169) 
CCOc1nc(NC)nc(NC(=O)NS(=O)(=O)c2ccccc2C(=O)OC)n1

>  <ROMol>  (169) 
<rdkit.Chem.rdchem.Mol object at 0x0000027F78E2CEB0>

$$$$

     RDKit          2D

 10  9  0  0  0  0  0  0  0  0999 V2000
   -0.3829    1.4289    0.0000 C   0  0  0  0  0  0  0  0  0  0  0  0
    0.3316    1.8414    0.0000 C   0  0  0  0  0  0  0  0  0  0  0  0
    1.0461    1.4289    0.0000 C   0  0  0  0  0  0  0  0  0  0  0  0
    1.7605    1.8414    0.0000 C   0  0  0  0  0  0  0  0  0  0  0  0
    2.4750    1.4289    0.0000 C   0  0  0  0  0  0  0  0  0  0  0  0
    3.1895    1.8414    0.0000 C   0  0  0  0  0  0  0  0  0  0  0  0
    3.9039    1.4289    0.0000 C   0  0  0  0  0  0  0  0  0  0  0  0
    4.6184    1.8414    0.0000 C   0  0  0  0  0  0  0  0  0  0  0  0
    5.3329    1.4289    0.0000 C   0  0  0  0  0  0  0  0  0  0  0  0
    6.0474    1.8414    0.0000 C   0  0  0  0  0  0  0  0  0  0  0  0
  2  1  1  0
  2  3  2  3
  3  4  1  0
  4  5  1  0
  5  6  1  0
  6  7  1  0
  7  8  1  0
  8  9  1  0
  9 10  1  0
M  END
>  <id>  (170) 
2847; 2851

>  <casrn>  (170) 
25339-53-1

>  <smiles (First)>  (170) 


>  <Molecular weight>  (170) 
140.26580810546875

>  <name>  (170) 
dec-1-ene

>  <Outcome>  (170) 
0

>  <Molecule (RDKit Mol) (InChI Code)>  (170) 
InChI=1S/C10H20/c1-3-5-7-9-10-8-6-4-2/h3,5H,4,6-10H2,1-2H3

>  <reference>  (170) 
ECHA

>  <molecule_form>  (170) 
V

>  <ID>  (170) 


>  <SMILES>  (170) 
CC=CCCCCCCC

>  <ROMol>  (170) 
<rdkit.Chem.rdchem.Mol object at 0x0000027F584AC120>

$$$$

     RDKit          2D

  7  6  0  0  0  0  0  0  0  0999 V2000
   -0.1597    0.6845    0.0000 C   0  0  0  0  0  0  0  0  0  0  0  0
    0.5548    1.0970    0.0000 C   0  0  0  0  0  0  0  0  0  0  0  0
    1.2693    0.6845    0.0000 C   0  0  0  0  0  0  0  0  0  0  0  0
    1.9837    1.0970    0.0000 C   0  0  0  0  0  0  0  0  0  0  0  0
    1.9837    1.9220    0.0000 O   0  0  0  0  0  0  0  0  0  0  0  0
    2.6982    0.6845    0.0000 C   0  0  0  0  0  0  0  0  0  0  0  0
    3.4127    1.0970    0.0000 O   0  0  0  0  0  0  0  0  0  0  0  0
  1  2  1  0
  2  3  1  0
  3  4  1  0
  4  5  1  0
  4  6  1  0
  6  7  1  0
M  END
>  <id>  (171) 
3695

>  <casrn>  (171) 
5343-92-0

>  <smiles (First)>  (171) 


>  <Molecular weight>  (171) 
104.1475830078125

>  <name>  (171) 
pentane-1,2-diol

>  <Outcome>  (171) 
0

>  <Molecule (RDKit Mol) (InChI Code)>  (171) 
InChI=1S/C5H12O2/c1-2-3-5(7)4-6/h5-7H,2-4H2,1H3

>  <reference>  (171) 
ECHA

>  <molecule_form>  (171) 
A

>  <ID>  (171) 


>  <SMILES>  (171) 
CCCC(O)CO

>  <ROMol>  (171) 
<rdkit.Chem.rdchem.Mol object at 0x0000027F5C144820>

$$$$

     RDKit          2D

  7  6  0  0  0  0  0  0  0  0999 V2000
   -0.0341    0.4350    0.0000 C   0  0  0  0  0  0  0  0  0  0  0  0
    0.6804    0.0225    0.0000 C   0  0  0  0  0  0  0  0  0  0  0  0
    1.3949    0.4350    0.0000 C   0  0  0  0  0  0  0  0  0  0  0  0
    2.1093    0.0225    0.0000 C   0  0  0  0  0  0  0  0  0  0  0  0
    2.8238    0.4350    0.0000 C   0  0  0  0  0  0  0  0  0  0  0  0
    3.5383    0.0225    0.0000 C   0  0  0  0  0  0  0  0  0  0  0  0
    4.2528    0.4350    0.0000 O   0  0  0  0  0  0  0  0  0  0  0  0
  1  2  1  0
  2  3  1  0
  3  4  1  0
  4  5  1  0
  5  6  1  0
  6  7  1  0
M  END
>  <id>  (172) 
207657

>  <casrn>  (172) 
111-27-3

>  <smiles (First)>  (172) 
CCCCCCO

>  <Molecular weight>  (172) 
102.17475891113281

>  <name>  (172) 
1-Hexanol

>  <Outcome>  (172) 
0

>  <Molecule (RDKit Mol) (InChI Code)>  (172) 
InChI=1S/C6H14O/c1-2-3-4-5-6-7/h7H,2-6H2,1H3

>  <reference>  (172) 
ToxValDB

>  <molecule_form>  (172) 
not specified

>  <ID>  (172) 


>  <SMILES>  (172) 
CCCCCCO

>  <ROMol>  (172) 
<rdkit.Chem.rdchem.Mol object at 0x0000027F58905200>

$$$$

     RDKit          2D

  6  5  0  0  0  0  0  0  0  0999 V2000
    0.0000   -0.0022    0.0000 C   0  0  0  0  0  0  0  0  0  0  0  0
    0.7145    0.4103    0.0000 C   0  0  0  0  0  0  0  0  0  0  0  0
    1.4290   -0.0022    0.0000 O   0  0  0  0  0  0  0  0  0  0  0  0
    2.1434    0.4103    0.0000 C   0  0  0  0  0  0  0  0  0  0  0  0
    2.8579   -0.0022    0.0000 C   0  0  0  0  0  0  0  0  0  0  0  0
    3.5724    0.4103    0.0000 O   0  0  0  0  0  0  0  0  0  0  0  0
  1  2  1  0
  2  3  1  0
  3  4  1  0
  4  5  1  0
  5  6  1  0
M  END
>  <id>  (173) 
206682

>  <casrn>  (173) 
110-80-5

>  <smiles (First)>  (173) 
CCOCCO

>  <Molecular weight>  (173) 
90.12100219726562

>  <name>  (173) 
2-Ethoxyethanol

>  <Outcome>  (173) 
1

>  <Molecule (RDKit Mol) (InChI Code)>  (173) 
InChI=1S/C4H10O2/c1-2-6-4-3-5/h5H,2-4H2,1H3

>  <reference>  (173) 
ToxValDB

>  <molecule_form>  (173) 
not specified

>  <ID>  (173) 


>  <SMILES>  (173) 
CCOCCO

>  <ROMol>  (173) 
<rdkit.Chem.rdchem.Mol object at 0x0000027F58905190>

$$$$

     RDKit          2D

  6  6  0  0  0  0  0  0  0  0999 V2000
    0.7145    1.2355    0.0000 C   0  0  0  0  0  0  0  0  0  0  0  0
    1.4289    0.8230    0.0000 C   0  0  0  0  0  0  0  0  0  0  0  0
    1.4289   -0.0020    0.0000 C   0  0  0  0  0  0  0  0  0  0  0  0
    0.7145   -0.4145    0.0000 N   0  0  0  0  0  0  0  0  0  0  0  0
    0.0000   -0.0020    0.0000 C   0  0  0  0  0  0  0  0  0  0  0  0
    0.0000    0.8230    0.0000 C   0  0  0  0  0  0  0  0  0  0  0  0
  1  2  1  0
  2  3  1  0
  3  4  1  0
  4  5  1  0
  5  6  1  0
  1  6  1  0
M  END
>  <id>  (174) 
3738; 3739

>  <casrn>  (174) 
110-89-4

>  <smiles (First)>  (174) 


>  <Molecular weight>  (174) 
85.14753723144531

>  <name>  (174) 
piperidine

>  <Outcome>  (174) 
1

>  <Molecule (RDKit Mol) (InChI Code)>  (174) 
InChI=1S/C5H11N/c1-2-4-6-5-3-1/h6H,1-5H2

>  <reference>  (174) 
ECHA

>  <molecule_form>  (174) 
V

>  <ID>  (174) 


>  <SMILES>  (174) 
C1CCNCC1

>  <ROMol>  (174) 
<rdkit.Chem.rdchem.Mol object at 0x0000027F583F4350>

$$$$

     RDKit          2D

  6  5  0  0  0  0  0  0  0  0999 V2000
    0.0000    0.0000    0.0000 C   0  0  0  0  0  0  0  0  0  0  0  0
    0.7145    0.4125    0.0000 S   0  0  0  0  0  0  0  0  0  0  0  0
    1.4290    0.0000    0.0000 C   0  0  0  0  0  0  0  0  0  0  0  0
    2.1435    0.4125    0.0000 C   0  0  0  0  0  0  0  0  0  0  0  0
    2.8579    0.0000    0.0000 C   0  0  0  0  0  0  0  0  0  0  0  0
    3.5724    0.4125    0.0000 O   0  0  0  0  0  0  0  0  0  0  0  0
  1  2  1  0
  2  3  1  0
  3  4  1  0
  4  5  1  0
  5  6  2  0
M  END
>  <id>  (175) 
257950

>  <casrn>  (175) 
3268-49-3

>  <smiles (First)>  (175) 
CSCCC=O

>  <Molecular weight>  (175) 
104.17072296142578

>  <name>  (175) 
3-(Methylthio)propanal

>  <Outcome>  (175) 
1

>  <Molecule (RDKit Mol) (InChI Code)>  (175) 
InChI=1S/C4H8OS/c1-6-4-2-3-5/h3H,2,4H2,1H3

>  <reference>  (175) 
ToxValDB

>  <molecule_form>  (175) 
not specified

>  <ID>  (175) 


>  <SMILES>  (175) 
CSCCC=O

>  <ROMol>  (175) 
<rdkit.Chem.rdchem.Mol object at 0x0000027F6244FAC0>

$$$$

     RDKit          2D

 11 11  0  0  0  0  0  0  0  0999 V2000
    0.7557    2.1621    0.0000 C   0  0  0  0  0  0  0  0  0  0  0  0
    0.7557    1.3371    0.0000 C   0  0  0  0  0  0  0  0  0  0  0  0
    1.4701    0.9246    0.0000 C   0  0  0  0  0  0  0  0  0  0  0  0
    1.4701    0.0996    0.0000 C   0  0  0  0  0  0  0  0  0  0  0  0
    2.1846   -0.3129    0.0000 O   0  0  0  0  0  0  0  0  0  0  0  0
    0.7557   -0.3129    0.0000 C   0  0  0  0  0  0  0  0  0  0  0  0
    0.7557   -1.1379    0.0000 C   0  0  0  0  0  0  0  0  0  0  0  0
    0.0412    0.0996    0.0000 C   0  0  0  0  0  0  0  0  0  0  0  0
   -0.6733   -0.3129    0.0000 C   0  0  0  0  0  0  0  0  0  0  0  0
    0.0412    0.9246    0.0000 C   0  0  0  0  0  0  0  0  0  0  0  0
   -0.6733    1.3371    0.0000 O   0  0  0  0  0  0  0  0  0  0  0  0
  1  2  1  0
  2  3  2  0
  3  4  1  0
  4  5  1  0
  4  6  2  0
  6  7  1  0
  6  8  1  0
  8  9  1  0
  8 10  2  0
  2 10  1  0
 10 11  1  0
M  END
>  <id>  (176) 
1279

>  <casrn>  (176) 
700-13-0

>  <smiles (First)>  (176) 


>  <Molecular weight>  (176) 
152.1903839111328

>  <name>  (176) 
2,3,5-trimethylbenzene-1,4-diol

>  <Outcome>  (176) 
1

>  <Molecule (RDKit Mol) (InChI Code)>  (176) 
InChI=1S/C9H12O2/c1-5-4-8(10)6(2)7(3)9(5)11/h4,10-11H,1-3H3

>  <reference>  (176) 
ECHA

>  <molecule_form>  (176) 
A

>  <ID>  (176) 


>  <SMILES>  (176) 
Cc1cc(O)c(C)c(C)c1O

>  <ROMol>  (176) 
<rdkit.Chem.rdchem.Mol object at 0x0000027F6246B0B0>

$$$$

     RDKit          2D

 22 21  0  0  0  0  0  0  0  0999 V2000
    4.5375   -5.0013    0.0000 C   0  0  0  0  0  0  0  0  0  0  0  0
    3.7125   -5.0013    0.0000 C   0  0  0  0  0  0  0  0  0  0  0  0
    3.3000   -4.2868    0.0000 C   0  0  0  0  0  0  0  0  0  0  0  0
    4.0145   -3.8743    0.0000 F   0  0  0  0  0  0  0  0  0  0  0  0
    2.5855   -4.6993    0.0000 F   0  0  0  0  0  0  0  0  0  0  0  0
    2.8875   -3.5724    0.0000 C   0  0  0  0  0  0  0  0  0  0  0  0
    3.6020   -3.1599    0.0000 F   0  0  0  0  0  0  0  0  0  0  0  0
    2.1730   -3.9849    0.0000 F   0  0  0  0  0  0  0  0  0  0  0  0
    2.4750   -2.8579    0.0000 C   0  0  0  0  0  0  0  0  0  0  0  0
    3.1895   -2.4454    0.0000 F   0  0  0  0  0  0  0  0  0  0  0  0
    1.7605   -3.2704    0.0000 F   0  0  0  0  0  0  0  0  0  0  0  0
    2.0625   -2.1434    0.0000 C   0  0  0  0  0  0  0  0  0  0  0  0
    2.7770   -1.7309    0.0000 F   0  0  0  0  0  0  0  0  0  0  0  0
    1.3480   -2.5559    0.0000 F   0  0  0  0  0  0  0  0  0  0  0  0
    1.6500   -1.4289    0.0000 C   0  0  0  0  0  0  0  0  0  0  0  0
    2.3645   -1.0164    0.0000 F   0  0  0  0  0  0  0  0  0  0  0  0
    0.9355   -1.8414    0.0000 F   0  0  0  0  0  0  0  0  0  0  0  0
    1.2375   -0.7145    0.0000 C   0  0  0  0  0  0  0  0  0  0  0  0
    1.9520   -0.3020    0.0000 F   0  0  0  0  0  0  0  0  0  0  0  0
    0.5230   -1.1270    0.0000 F   0  0  0  0  0  0  0  0  0  0  0  0
    0.8250   -0.0000    0.0000 C   0  0  0  0  0  0  0  0  0  0  0  0
    0.0000   -0.0000    0.0000 C   0  0  0  0  0  0  0  0  0  0  0  0
  1  2  2  0
  2  3  1  0
  3  4  1  0
  3  5  1  0
  3  6  1  0
  6  7  1  0
  6  8  1  0
  6  9  1  0
  9 10  1  0
  9 11  1  0
  9 12  1  0
 12 13  1  0
 12 14  1  0
 12 15  1  0
 15 16  1  0
 15 17  1  0
 15 18  1  0
 18 19  1  0
 18 20  1  0
 18 21  1  0
 21 22  2  0
M  END
>  <id>  (177) 
1717

>  <casrn>  (177) 
1800-91-5

>  <smiles (First)>  (177) 


>  <Molecular weight>  (177) 
354.135498046875

>  <name>  (177) 
3,3,4,4,5,5,6,6,7,7,8,8-dodecafluorodeca-1,9-diene

>  <Outcome>  (177) 
0

>  <Molecule (RDKit Mol) (InChI Code)>  (177) 
InChI=1S/C10H6F12/c1-3-5(11,12)7(15,16)9(19,20)10(21,22)8(17,18)6(13,14)4-2/h3-4H,1-2H2

>  <reference>  (177) 
ECHA

>  <molecule_form>  (177) 
V

>  <ID>  (177) 


>  <SMILES>  (177) 
C=CC(F)(F)C(F)(F)C(F)(F)C(F)(F)C(F)(F)C(F)(F)C=C

>  <ROMol>  (177) 
<rdkit.Chem.rdchem.Mol object at 0x0000027F583F4CF0>

$$$$

     RDKit          2D

  4  3  0  0  0  0  0  0  0  0999 V2000
    2.0625   -0.7145    0.0000 C   0  0  0  0  0  0  0  0  0  0  0  0
    1.2375   -0.7145    0.0000 C   0  0  0  0  0  0  0  0  0  0  0  0
    0.8250   -0.0000    0.0000 C   0  0  0  0  0  0  0  0  0  0  0  0
    0.0000   -0.0000    0.0000 N   0  0  0  0  0  0  0  0  0  0  0  0
  1  2  1  0
  2  3  1  0
  3  4  1  0
M  END
>  <id>  (178) 
3785

>  <casrn>  (178) 
107-10-8

>  <smiles (First)>  (178) 


>  <Molecular weight>  (178) 
59.110260009765625

>  <name>  (178) 
propan-1-amine

>  <Outcome>  (178) 
1

>  <Molecule (RDKit Mol) (InChI Code)>  (178) 
InChI=1S/C3H9N/c1-2-3-4/h2-4H2,1H3

>  <reference>  (178) 
ECHA

>  <molecule_form>  (178) 
V

>  <ID>  (178) 


>  <SMILES>  (178) 
CCCN

>  <ROMol>  (178) 
<rdkit.Chem.rdchem.Mol object at 0x0000027F584D5190>

$$$$

     RDKit          2D

 10 10  0  0  0  0  0  0  0  0999 V2000
    2.1829    0.2652    0.0000 O   0  0  0  0  0  0  0  0  0  0  0  0
    1.4684    0.6777    0.0000 N   0  0  0  0  0  0  0  0  0  0  0  0
    1.4684    1.5027    0.0000 O   0  0  0  0  0  0  0  0  0  0  0  0
    0.7540    0.2652    0.0000 C   0  0  0  0  0  0  0  0  0  0  0  0
    0.0395    0.6777    0.0000 C   0  0  0  0  0  0  0  0  0  0  0  0
   -0.6750    0.2652    0.0000 C   0  0  0  0  0  0  0  0  0  0  0  0
   -0.6750   -0.5598    0.0000 C   0  0  0  0  0  0  0  0  0  0  0  0
    0.0395   -0.9723    0.0000 C   0  0  0  0  0  0  0  0  0  0  0  0
    0.7540   -0.5598    0.0000 C   0  0  0  0  0  0  0  0  0  0  0  0
    1.4684   -0.9723    0.0000 Cl  0  0  0  0  0  0  0  0  0  0  0  0
  1  2  1  0
  2  3  2  0
  2  4  1  0
  5  4  2  0
  6  5  1  0
  7  6  2  0
  8  7  1  0
  9  8  2  0
  9 10  1  0
  4  9  1  0
M  CHG  2   1  -1   2   1
M  END
>  <id>  (179) 
337319

>  <casrn>  (179) 
88-73-3

>  <smiles (First)>  (179) 
[O-][N+](=O)c1ccccc1Cl

>  <Molecular weight>  (179) 
157.55445861816406

>  <name>  (179) 
1-Chloro-2-nitrobenzene

>  <Outcome>  (179) 
1

>  <Molecule (RDKit Mol) (InChI Code)>  (179) 
InChI=1S/C6H4ClNO2/c7-5-3-1-2-4-6(5)8(9)10/h1-4H

>  <reference>  (179) 
ToxValDB

>  <molecule_form>  (179) 
not specified

>  <ID>  (179) 


>  <SMILES>  (179) 
O=[N+]([O-])c1ccccc1Cl

>  <ROMol>  (179) 
<rdkit.Chem.rdchem.Mol object at 0x0000027F585E34A0>

$$$$

     RDKit          2D

  9  8  0  0  0  0  0  0  0  0999 V2000
   -0.6912   -2.4052    0.0000 C   0  0  0  0  0  0  0  0  0  0  0  0
    0.0233   -1.9927    0.0000 C   0  0  0  0  0  0  0  0  0  0  0  0
    0.7378   -2.4052    0.0000 C   0  0  0  0  0  0  0  0  0  0  0  0
    0.0233   -1.1677    0.0000 C   0  0  0  0  0  0  0  0  0  0  0  0
    0.7378   -0.7552    0.0000 O   0  0  0  0  0  0  0  0  0  0  0  0
    0.7378    0.0698    0.0000 C   0  0  0  0  0  0  0  0  0  0  0  0
    0.7378    0.8948    0.0000 C   0  0  0  0  0  0  0  0  0  0  0  0
    1.5628    0.0698    0.0000 C   0  0  0  0  0  0  0  0  0  0  0  0
   -0.0872    0.0698    0.0000 C   0  0  0  0  0  0  0  0  0  0  0  0
  1  2  1  0
  2  3  1  0
  2  4  1  0
  4  5  1  0
  5  6  1  0
  6  7  1  0
  6  8  1  0
  6  9  1  0
M  END
>  <id>  (180) 
3922

>  <casrn>  (180) 
33021-02-2

>  <smiles (First)>  (180) 


>  <Molecular weight>  (180) 
130.22792053222656

>  <name>  (180) 
tert-butyl isobutyl ether

>  <Outcome>  (180) 
0

>  <Molecule (RDKit Mol) (InChI Code)>  (180) 
InChI=1S/C8H18O/c1-7(2)6-9-8(3,4)5/h7H,6H2,1-5H3

>  <reference>  (180) 
ECHA

>  <molecule_form>  (180) 
V

>  <ID>  (180) 


>  <SMILES>  (180) 
CC(C)COC(C)(C)C

>  <ROMol>  (180) 
<rdkit.Chem.rdchem.Mol object at 0x0000027F584D5CF0>

$$$$

     RDKit          2D

 21 21  0  0  0  0  0  0  0  0999 V2000
   -0.9748    2.1986    0.0000 C   0  0  0  0  0  0  0  0  0  0  0  0
   -0.2603    1.7861    0.0000 C   0  0  0  0  0  0  0  0  0  0  0  0
    0.4542    2.1986    0.0000 C   0  0  0  0  0  0  0  0  0  0  0  0
    1.1686    1.7861    0.0000 C   0  0  0  0  0  0  0  0  0  0  0  0
    1.8831    2.1986    0.0000 C   0  0  0  0  0  0  0  0  0  0  0  0
    2.5976    1.7861    0.0000 C   0  0  0  0  0  0  0  0  0  0  0  0
    3.3120    2.1986    0.0000 C   0  0  0  0  0  0  0  0  0  0  0  0
    4.0265    1.7861    0.0000 C   0  0  0  0  0  0  0  0  0  0  0  0
    4.7410    2.1986    0.0000 C   0  0  0  0  0  0  0  0  0  0  0  0
    5.4555    1.7861    0.0000 C   0  0  0  0  0  0  0  0  0  0  0  0
    6.1699    2.1986    0.0000 C   0  0  0  0  0  0  0  0  0  0  0  0
    6.8844    1.7861    0.0000 C   0  0  0  0  0  0  0  0  0  0  0  0
    7.5989    2.1986    0.0000 O   0  0  0  0  0  0  0  0  0  0  0  0
    8.3133    1.7861    0.0000 C   0  0  0  0  0  0  0  0  0  0  0  0
    8.3133    0.9611    0.0000 O   0  0  0  0  0  0  0  0  0  0  0  0
    9.0278    2.1986    0.0000 C   0  0  0  0  0  0  0  0  0  0  0  0
    9.7423    1.7861    0.0000 C   0  0  0  0  0  0  0  0  0  0  0  0
   10.4568    2.1986    0.0000 C   0  0  0  0  0  0  0  0  0  0  0  0
   10.4568    3.0236    0.0000 C   0  0  0  0  0  0  0  0  0  0  0  0
    9.7423    3.4361    0.0000 C   0  0  0  0  0  0  0  0  0  0  0  0
    9.0278    3.0236    0.0000 C   0  0  0  0  0  0  0  0  0  0  0  0
  1  2  1  0
  2  3  1  0
  3  4  1  0
  4  5  1  0
  5  6  1  0
  6  7  1  0
  7  8  1  0
  8  9  1  0
  9 10  1  0
 10 11  1  0
 11 12  1  0
 12 13  1  0
 13 14  1  0
 14 15  2  0
 14 16  1  0
 17 16  2  0
 18 17  1  0
 19 18  2  0
 20 19  1  0
 21 20  2  0
 16 21  1  0
M  END
>  <id>  (181) 
293906

>  <casrn>  (181) 
68411-27-8

>  <smiles (First)>  (181) 
CCCCCCCCCCCCOC(=O)c1ccccc1

>  <Molecular weight>  (181) 
290.4403076171875

>  <name>  (181) 
Benzoic acid, C12-15-alkyl esters

>  <Outcome>  (181) 
0

>  <Molecule (RDKit Mol) (InChI Code)>  (181) 
InChI=1S/C19H30O2/c1-2-3-4-5-6-7-8-9-10-14-17-21-19(20)18-15-12-11-13-16-18/h11-13,15-16H,2-10,14,17H2,1H3

>  <reference>  (181) 
ToxValDB

>  <molecule_form>  (181) 
not specified

>  <ID>  (181) 


>  <SMILES>  (181) 
CCCCCCCCCCCCOC(=O)c1ccccc1

>  <ROMol>  (181) 
<rdkit.Chem.rdchem.Mol object at 0x0000027F6244F6D0>

$$$$

     RDKit          2D

 32 32  0  0  0  0  0  0  0  0999 V2000
   -4.4088   -2.1961    0.0000 C   0  0  0  0  0  0  0  0  0  0  0  0
   -3.8687   -1.5725    0.0000 C   0  0  0  0  0  0  0  0  0  0  0  0
   -3.0586   -1.7284    0.0000 C   0  0  0  0  0  0  0  0  0  0  0  0
   -2.5185   -1.1047    0.0000 C   0  0  0  0  0  0  0  0  0  0  0  0
   -1.7084   -1.2606    0.0000 C   0  0  0  0  0  0  0  0  0  0  0  0
   -1.1683   -0.6370    0.0000 C   0  0  0  0  0  0  0  0  0  0  0  0
   -1.4383    0.1426    0.0000 C   0  0  0  0  0  0  0  0  0  0  0  0
   -2.2484    0.2985    0.0000 C   0  0  0  0  0  0  0  0  0  0  0  0
   -2.5185    1.0780    0.0000 C   0  0  0  0  0  0  0  0  0  0  0  0
   -0.3581   -0.7929    0.0000 C   0  0  0  0  0  0  0  0  0  0  0  0
    0.1820   -0.1693    0.0000 O   0  0  0  0  0  0  0  0  0  0  0  0
    0.9921   -0.3252    0.0000 C   0  0  0  0  0  0  0  0  0  0  0  0
    1.2621   -1.1047    0.0000 O   0  0  0  0  0  0  0  0  0  0  0  0
    1.5322    0.2985    0.0000 C   0  0  0  0  0  0  0  0  0  0  0  0
    1.2621    1.0780    0.0000 C   0  0  0  0  0  0  0  0  0  0  0  0
    1.8022    1.7017    0.0000 C   0  0  0  0  0  0  0  0  0  0  0  0
    2.6124    1.5458    0.0000 C   0  0  0  0  0  0  0  0  0  0  0  0
    2.8824    0.7662    0.0000 C   0  0  0  0  0  0  0  0  0  0  0  0
    2.3423    0.1426    0.0000 C   0  0  0  0  0  0  0  0  0  0  0  0
    2.6124   -0.6370    0.0000 C   0  0  0  0  0  0  0  0  0  0  0  0
    3.4225   -0.7929    0.0000 O   0  0  0  0  0  0  0  0  0  0  0  0
    2.0723   -1.2606    0.0000 O   0  0  0  0  0  0  0  0  0  0  0  0
    2.3423   -2.0402    0.0000 C   0  0  0  0  0  0  0  0  0  0  0  0
    3.1524   -2.1961    0.0000 C   0  0  0  0  0  0  0  0  0  0  0  0
    3.4225   -2.9756    0.0000 C   0  0  0  0  0  0  0  0  0  0  0  0
    4.2326   -3.1316    0.0000 C   0  0  0  0  0  0  0  0  0  0  0  0
    4.5027   -3.9111    0.0000 C   0  0  0  0  0  0  0  0  0  0  0  0
    3.6925   -1.5725    0.0000 C   0  0  0  0  0  0  0  0  0  0  0  0
    4.5027   -1.7284    0.0000 C   0  0  0  0  0  0  0  0  0  0  0  0
    5.0428   -1.1047    0.0000 C   0  0  0  0  0  0  0  0  0  0  0  0
    5.8529   -1.2606    0.0000 C   0  0  0  0  0  0  0  0  0  0  0  0
    6.3930   -0.6370    0.0000 C   0  0  0  0  0  0  0  0  0  0  0  0
  1  2  1  0
  2  3  1  0
  3  4  1  0
  4  5  1  0
  5  6  1  0
  6  7  1  0
  7  8  1  0
  8  9  1  0
  6 10  1  0
 10 11  1  0
 11 12  1  0
 12 13  2  0
 12 14  1  0
 14 15  2  0
 15 16  1  0
 16 17  2  0
 17 18  1  0
 18 19  2  0
 14 19  1  0
 19 20  1  0
 20 21  2  0
 20 22  1  0
 22 23  1  0
 23 24  1  0
 24 25  1  0
 25 26  1  0
 26 27  1  0
 24 28  1  0
 28 29  1  0
 29 30  1  0
 30 31  1  0
 31 32  1  0
M  END
>  <id>  (182) 
919

>  <casrn>  (182) 
53306-54-0

>  <smiles (First)>  (182) 


>  <Molecular weight>  (182) 
446.6624450683594

>  <name>  (182) 
1,2-bis(2-propylheptyl) benzene-1,2-dicarboxylate

>  <Outcome>  (182) 
0

>  <Molecule (RDKit Mol) (InChI Code)>  (182) 
InChI=1S/C28H46O4/c1-5-9-11-17-23(15-7-3)21-31-27(29)25-19-13-14-20-26(25)28(30)32-22-24(16-8-4)18-12-10-6-2/h13-14,19-20,23-24H,5-12,15-18,21-22H2,1-4H3

>  <reference>  (182) 
ECHA

>  <molecule_form>  (182) 
A

>  <ID>  (182) 


>  <SMILES>  (182) 
CCCCCC(CCC)COC(=O)c1ccccc1C(=O)OCC(CCC)CCCCC

>  <ROMol>  (182) 
<rdkit.Chem.rdchem.Mol object at 0x0000027F584089E0>

$$$$

     RDKit          2D

 10  9  0  0  0  0  0  0  0  0999 V2000
    2.2836    2.1446    0.0000 C   0  0  0  0  0  0  0  0  0  0  0  0
    2.9980    2.5571    0.0000 C   0  0  0  0  0  0  0  0  0  0  0  0
    3.7125    2.1446    0.0000 C   0  0  0  0  0  0  0  0  0  0  0  0
    4.4270    2.5571    0.0000 C   0  0  0  0  0  0  0  0  0  0  0  0
    5.1414    2.1446    0.0000 C   0  0  0  0  0  0  0  0  0  0  0  0
    5.8559    2.5571    0.0000 C   0  0  0  0  0  0  0  0  0  0  0  0
    6.5704    2.1446    0.0000 C   0  0  0  0  0  0  0  0  0  0  0  0
    7.2849    2.5571    0.0000 C   0  0  0  0  0  0  0  0  0  0  0  0
    7.9993    2.1446    0.0000 C   0  0  0  0  0  0  0  0  0  0  0  0
    8.7138    2.5571    0.0000 C   0  0  0  0  0  0  0  0  0  0  0  0
  1  2  2  0
  2  3  1  0
  3  4  1  0
  4  5  1  0
  5  6  1  0
  6  7  1  0
  7  8  1  0
  8  9  1  0
  9 10  1  0
M  END
>  <id>  (183) 
1893; 2869; 2863

>  <casrn>  (183) 
68037-01-4

>  <smiles (First)>  (183) 


>  <Molecular weight>  (183) 
140.26580810546875

>  <name>  (183) 
8-ethyl-10,12-diheptyl-9,11,13-trimethylhenicosane; 8-ethyl-10-heptyl-9,11-dimethylnonadecane

>  <Outcome>  (183) 
0

>  <Molecule (RDKit Mol) (InChI Code)>  (183) 
InChI=1S/C10H20/c1-3-5-7-9-10-8-6-4-2/h3H,1,4-10H2,2H3

>  <reference>  (183) 
ECHA

>  <molecule_form>  (183) 
V; A

>  <ID>  (183) 


>  <SMILES>  (183) 
C=CCCCCCCCC

>  <ROMol>  (183) 
<rdkit.Chem.rdchem.Mol object at 0x0000027F6246BF90>

$$$$

     RDKit          2D

 13 12  0  0  0  0  0  0  0  0999 V2000
   -0.2132    0.6885    0.0000 C   0  0  0  0  0  0  0  0  0  0  0  0
    0.5013    1.1010    0.0000 C   0  0  0  0  0  0  0  0  0  0  0  0
    1.2158    0.6885    0.0000 O   0  0  0  0  0  0  0  0  0  0  0  0
    1.9302    1.1010    0.0000 C   0  0  0  0  0  0  0  0  0  0  0  0
    1.9302    1.9260    0.0000 O   0  0  0  0  0  0  0  0  0  0  0  0
    2.6447    0.6885    0.0000 C   0  0  0  0  0  0  0  0  0  0  0  0
    3.3592    1.1010    0.0000 C   0  0  0  0  0  0  0  0  0  0  0  0
    3.3592    1.9260    0.0000 C   0  0  0  0  0  0  0  0  0  0  0  0
    4.0736    0.6885    0.0000 C   0  0  0  0  0  0  0  0  0  0  0  0
    4.7881    1.1010    0.0000 C   0  0  0  0  0  0  0  0  0  0  0  0
    5.5026    1.5135    0.0000 C   0  0  0  0  0  0  0  0  0  0  0  0
    5.2006    0.3865    0.0000 C   0  0  0  0  0  0  0  0  0  0  0  0
    4.3756    1.8155    0.0000 C   0  0  0  0  0  0  0  0  0  0  0  0
  1  2  1  0
  2  3  1  0
  3  4  1  0
  4  5  2  0
  4  6  1  0
  6  7  1  0
  7  8  1  0
  7  9  1  0
  9 10  1  0
 10 11  1  0
 10 12  1  0
 10 13  1  0
M  END
>  <id>  (184) 
3150

>  <casrn>  (184) 
67707-75-9

>  <smiles (First)>  (184) 


>  <Molecular weight>  (184) 
186.2911834716797

>  <name>  (184) 
ethyl 3,5,5-trimethylhexanoate

>  <Outcome>  (184) 
1

>  <Molecule (RDKit Mol) (InChI Code)>  (184) 
InChI=1S/C11H22O2/c1-6-13-10(12)7-9(2)8-11(3,4)5/h9H,6-8H2,1-5H3

>  <reference>  (184) 
ECHA

>  <molecule_form>  (184) 
A

>  <ID>  (184) 


>  <SMILES>  (184) 
CCOC(=O)CC(C)CC(C)(C)C

>  <ROMol>  (184) 
<rdkit.Chem.rdchem.Mol object at 0x0000027F583F4120>

$$$$

     RDKit          2D

 11 11  0  0  0  0  0  0  0  0999 V2000
    0.7145    2.0625    0.0000 Cl  0  0  0  0  0  0  0  0  0  0  0  0
    0.7145    1.2375    0.0000 C   0  0  0  0  0  0  0  0  0  0  0  0
    1.4289    0.8250    0.0000 C   0  0  0  0  0  0  0  0  0  0  0  0
    1.4289   -0.0000    0.0000 C   0  0  0  0  0  0  0  0  0  0  0  0
    0.7145   -0.4125    0.0000 C   0  0  0  0  0  0  0  0  0  0  0  0
    0.7145   -1.2375    0.0000 C   0  0  0  0  0  0  0  0  0  0  0  0
    0.7145   -2.0625    0.0000 Cl  0  0  0  0  0  0  0  0  0  0  0  0
   -0.1105   -1.2375    0.0000 Cl  0  0  0  0  0  0  0  0  0  0  0  0
    1.5395   -1.2375    0.0000 Cl  0  0  0  0  0  0  0  0  0  0  0  0
    0.0000    0.0000    0.0000 C   0  0  0  0  0  0  0  0  0  0  0  0
    0.0000    0.8250    0.0000 C   0  0  0  0  0  0  0  0  0  0  0  0
  1  2  1  0
  2  3  2  0
  3  4  1  0
  4  5  2  0
  5  6  1  0
  6  7  1  0
  6  8  1  0
  6  9  1  0
  5 10  1  0
 10 11  2  0
  2 11  1  0
M  END
>  <id>  (185) 
1144

>  <casrn>  (185) 
5216-25-1

>  <smiles (First)>  (185) 


>  <Molecular weight>  (185) 
229.9186553955078

>  <name>  (185) 
1-chloro-4-(trichloromethyl)benzene

>  <Outcome>  (185) 
1

>  <Molecule (RDKit Mol) (InChI Code)>  (185) 
InChI=1S/C7H4Cl4/c8-6-3-1-5(2-4-6)7(9,10)11/h1-4H

>  <reference>  (185) 
ECHA

>  <molecule_form>  (185) 
A

>  <ID>  (185) 


>  <SMILES>  (185) 
Clc1ccc(C(Cl)(Cl)Cl)cc1

>  <ROMol>  (185) 
<rdkit.Chem.rdchem.Mol object at 0x0000027F58408D60>

$$$$

     RDKit          2D

 16 17  0  0  0  0  0  0  0  0999 V2000
    0.8131    0.7947    0.0000 O   0  0  0  0  0  0  0  0  0  0  0  0
    1.0681    0.0101    0.0000 C   0  0  0  0  0  0  0  0  0  0  0  0
    1.8527   -0.2448    0.0000 C   0  0  0  0  0  0  0  0  0  0  0  0
    2.5672    0.1677    0.0000 C   0  0  0  0  0  0  0  0  0  0  0  0
    3.2816   -0.2448    0.0000 C   0  0  0  0  0  0  0  0  0  0  0  0
    3.2816   -1.0698    0.0000 C   0  0  0  0  0  0  0  0  0  0  0  0
    2.5672   -1.4823    0.0000 C   0  0  0  0  0  0  0  0  0  0  0  0
    1.8527   -1.0698    0.0000 C   0  0  0  0  0  0  0  0  0  0  0  0
    1.0681   -1.3248    0.0000 C   0  0  0  0  0  0  0  0  0  0  0  0
    0.8131   -2.1094    0.0000 O   0  0  0  0  0  0  0  0  0  0  0  0
    0.5832   -0.6573    0.0000 N   0  0  0  0  0  0  0  0  0  0  0  0
   -0.2418   -0.6573    0.0000 S   0  0  0  0  0  0  0  0  0  0  0  0
   -0.6543   -1.3718    0.0000 C   0  0  0  0  0  0  0  0  0  0  0  0
   -1.0668   -2.0863    0.0000 Cl  0  0  0  0  0  0  0  0  0  0  0  0
   -1.3688   -0.9593    0.0000 Cl  0  0  0  0  0  0  0  0  0  0  0  0
    0.0601   -1.7843    0.0000 Cl  0  0  0  0  0  0  0  0  0  0  0  0
  1  2  2  0
  2  3  1  0
  3  4  1  0
  4  5  1  0
  5  6  2  0
  6  7  1  0
  7  8  1  0
  3  8  1  0
  8  9  1  0
  9 10  2  0
  9 11  1  0
  2 11  1  0
 11 12  1  0
 12 13  1  0
 13 14  1  0
 13 15  1  0
 13 16  1  0
M  END
>  <id>  (186) 
1400

>  <casrn>  (186) 
133-06-2

>  <smiles (First)>  (186) 


>  <Molecular weight>  (186) 
300.5893249511719

>  <name>  (186) 
2-[(trichloromethyl)sulfanyl]-2,3,3a,4,7,7a-hexahydro-1H-isoindole-1,3-dione

>  <Outcome>  (186) 
1

>  <Molecule (RDKit Mol) (InChI Code)>  (186) 
InChI=1S/C9H8Cl3NO2S/c10-9(11,12)16-13-7(14)5-3-1-2-4-6(5)8(13)15/h1-2,5-6H,3-4H2

>  <reference>  (186) 
ECHA

>  <molecule_form>  (186) 
A

>  <ID>  (186) 


>  <SMILES>  (186) 
O=C1C2CC=CCC2C(=O)N1SC(Cl)(Cl)Cl

>  <ROMol>  (186) 
<rdkit.Chem.rdchem.Mol object at 0x0000027F624DD0B0>

$$$$

     RDKit          2D

 36 39  0  0  0  0  0  0  0  0999 V2000
    2.1313   -6.9199    0.0000 O   0  0  0  0  0  0  0  0  0  0  0  0
    2.1313   -7.7449    0.0000 S   0  0  0  0  0  0  0  0  0  0  0  0
    1.3063   -7.7449    0.0000 O   0  0  0  0  0  0  0  0  0  0  0  0
    2.9563   -7.7449    0.0000 O   0  0  0  0  0  0  0  0  0  0  0  0
    2.1313   -8.5699    0.0000 C   0  0  0  0  0  0  0  0  0  0  0  0
    2.8457   -8.9824    0.0000 C   0  0  0  0  0  0  0  0  0  0  0  0
    2.8457   -9.8074    0.0000 C   0  0  0  0  0  0  0  0  0  0  0  0
    2.1313  -10.2199    0.0000 C   0  0  0  0  0  0  0  0  0  0  0  0
    1.4168   -9.8074    0.0000 C   0  0  0  0  0  0  0  0  0  0  0  0
    1.4168   -8.9824    0.0000 C   0  0  0  0  0  0  0  0  0  0  0  0
    0.7023   -8.5699    0.0000 C   0  0  0  0  0  0  0  0  0  0  0  0
   -0.0122   -8.9824    0.0000 C   0  0  0  0  0  0  0  0  0  0  0  0
   -0.7266   -8.5699    0.0000 C   0  0  0  0  0  0  0  0  0  0  0  0
   -1.4411   -8.9824    0.0000 C   0  0  0  0  0  0  0  0  0  0  0  0
   -2.1556   -8.5699    0.0000 C   0  0  0  0  0  0  0  0  0  0  0  0
   -2.1556   -7.7449    0.0000 C   0  0  0  0  0  0  0  0  0  0  0  0
   -2.8700   -7.3324    0.0000 C   0  0  0  0  0  0  0  0  0  0  0  0
   -3.5845   -7.7449    0.0000 C   0  0  0  0  0  0  0  0  0  0  0  0
   -4.2990   -7.3324    0.0000 C   0  0  0  0  0  0  0  0  0  0  0  0
   -4.2990   -6.5074    0.0000 C   0  0  0  0  0  0  0  0  0  0  0  0
   -5.0134   -6.0949    0.0000 C   0  0  0  0  0  0  0  0  0  0  0  0
   -5.7279   -6.5074    0.0000 C   0  0  0  0  0  0  0  0  0  0  0  0
   -6.4424   -6.0949    0.0000 C   0  0  0  0  0  0  0  0  0  0  0  0
   -7.1569   -6.5074    0.0000 C   0  0  0  0  0  0  0  0  0  0  0  0
   -7.8713   -6.0949    0.0000 C   0  0  0  0  0  0  0  0  0  0  0  0
   -7.8713   -5.2699    0.0000 C   0  0  0  0  0  0  0  0  0  0  0  0
   -7.1569   -4.8574    0.0000 C   0  0  0  0  0  0  0  0  0  0  0  0
   -6.4424   -5.2699    0.0000 C   0  0  0  0  0  0  0  0  0  0  0  0
   -5.7279   -4.8574    0.0000 S   0  0  0  0  0  0  0  0  0  0  0  0
   -5.0134   -4.4449    0.0000 O   0  0  0  0  0  0  0  0  0  0  0  0
   -5.3154   -5.5718    0.0000 O   0  0  0  0  0  0  0  0  0  0  0  0
   -6.1404   -4.1429    0.0000 O   0  0  0  0  0  0  0  0  0  0  0  0
   -3.5845   -6.0949    0.0000 C   0  0  0  0  0  0  0  0  0  0  0  0
   -2.8700   -6.5074    0.0000 C   0  0  0  0  0  0  0  0  0  0  0  0
   -1.4411   -7.3324    0.0000 C   0  0  0  0  0  0  0  0  0  0  0  0
   -0.7266   -7.7449    0.0000 C   0  0  0  0  0  0  0  0  0  0  0  0
  1  2  2  0
  2  3  2  0
  2  4  1  0
  2  5  1  0
  5  6  2  0
  6  7  1  0
  7  8  2  0
  8  9  1  0
  9 10  2  0
  5 10  1  0
 11 10  1  0
 11 12  2  3
 12 13  1  0
 13 14  2  0
 14 15  1  0
 15 16  2  0
 16 17  1  0
 17 18  2  0
 18 19  1  0
 19 20  2  0
 21 20  1  0
 21 22  2  3
 22 23  1  0
 23 24  2  0
 24 25  1  0
 25 26  2  0
 26 27  1  0
 27 28  2  0
 23 28  1  0
 28 29  1  0
 29 30  2  0
 29 31  2  0
 29 32  1  0
 20 33  1  0
 33 34  2  0
 17 34  1  0
 16 35  1  0
 35 36  2  0
 13 36  1  0
M  END
>  <id>  (187) 
3033

>  <casrn>  (187) 
27344-41-8

>  <smiles (First)>  (187) 


>  <Molecular weight>  (187) 
516.5847778320312

>  <name>  (187) 
disodium 2-[(E)-2-(4-{4-[(E)-2-(2-sulfonatophenyl)ethenyl]phenyl}phenyl)ethenyl]benzene-1-sulfonate

>  <Outcome>  (187) 
1

>  <Molecule (RDKit Mol) (InChI Code)>  (187) 
InChI=1S/C28H22O6S2/c29-35(30,31)27-7-3-1-5-25(27)19-13-21-9-15-23(16-10-21)24-17-11-22(12-18-24)14-20-26-6-2-4-8-28(26)36(32,33)34/h1-20H,(H,29,30,31)(H,32,33,34)

>  <reference>  (187) 
ECHA

>  <molecule_form>  (187) 
A

>  <ID>  (187) 


>  <SMILES>  (187) 
O=S(=O)(O)c1ccccc1C=Cc1ccc(-c2ccc(C=Cc3ccccc3S(=O)(=O)O)cc2)cc1

>  <ROMol>  (187) 
<rdkit.Chem.rdchem.Mol object at 0x0000027F585E2C10>

$$$$

     RDKit          2D

 10  9  0  0  0  0  0  0  0  0999 V2000
    3.3235    0.2295    0.0000 C   0  0  0  0  0  0  0  0  0  0  0  0
    2.6090    0.6420    0.0000 C   0  0  0  0  0  0  0  0  0  0  0  0
    1.8946    0.2295    0.0000 C   0  0  0  0  0  0  0  0  0  0  0  0
    1.1801    0.6420    0.0000 Si  0  0  0  0  0  4  0  0  0  0  0  0
    0.4656    1.0545    0.0000 O   0  0  0  0  0  0  0  0  0  0  0  0
   -0.2488    0.6420    0.0000 C   0  0  0  0  0  0  0  0  0  0  0  0
    1.5926    1.3565    0.0000 O   0  0  0  0  0  0  0  0  0  0  0  0
    1.1801    2.0709    0.0000 C   0  0  0  0  0  0  0  0  0  0  0  0
    0.7676   -0.0725    0.0000 O   0  0  0  0  0  0  0  0  0  0  0  0
   -0.0574   -0.0725    0.0000 C   0  0  0  0  0  0  0  0  0  0  0  0
  1  2  1  0
  2  3  1  0
  3  4  1  0
  4  5  1  0
  5  6  1  0
  4  7  1  0
  7  8  1  0
  4  9  1  0
  9 10  1  0
M  END
>  <id>  (188) 
4089

>  <casrn>  (188) 
1067-25-0

>  <smiles (First)>  (188) 


>  <Molecular weight>  (188) 
164.2749481201172

>  <name>  (188) 
trimethoxy(propyl)silane

>  <Outcome>  (188) 
0

>  <Molecule (RDKit Mol) (InChI Code)>  (188) 
InChI=1S/C6H16O3Si/c1-5-6-10(7-2,8-3)9-4/h5-6H2,1-4H3

>  <reference>  (188) 
ECHA

>  <molecule_form>  (188) 
V

>  <ID>  (188) 


>  <SMILES>  (188) 
CCC[Si](OC)(OC)OC

>  <ROMol>  (188) 
<rdkit.Chem.rdchem.Mol object at 0x0000027F5843AD60>

$$$$

     RDKit          2D

 26 25  0  0  0  0  0  0  0  0999 V2000
   12.1836    7.8596    0.0000 C   0  0  0  0  0  0  0  0  0  0  0  0
   12.8980    8.2721    0.0000 C   0  0  0  0  0  0  0  0  0  0  0  0
   13.6125    7.8596    0.0000 C   0  0  0  0  0  0  0  0  0  0  0  0
   14.3270    8.2721    0.0000 C   0  0  0  0  0  0  0  0  0  0  0  0
   15.0414    7.8596    0.0000 C   0  0  0  0  0  0  0  0  0  0  0  0
   15.7559    8.2721    0.0000 C   0  0  0  0  0  0  0  0  0  0  0  0
   16.4704    7.8596    0.0000 C   0  0  0  0  0  0  0  0  0  0  0  0
   17.1849    8.2721    0.0000 C   0  0  0  0  0  0  0  0  0  0  0  0
   17.8993    7.8596    0.0000 C   0  0  0  0  0  0  0  0  0  0  0  0
   18.6138    8.2721    0.0000 C   0  0  0  0  0  0  0  0  0  0  0  0
   19.3283    7.8596    0.0000 C   0  0  0  0  0  0  0  0  0  0  0  0
   20.0427    8.2721    0.0000 C   0  0  0  0  0  0  0  0  0  0  0  0
   20.7572    7.8596    0.0000 C   0  0  0  0  0  0  0  0  0  0  0  0
   21.4717    8.2721    0.0000 C   0  0  0  0  0  0  0  0  0  0  0  0
   22.1862    7.8596    0.0000 C   0  0  0  0  0  0  0  0  0  0  0  0
   22.9006    8.2721    0.0000 C   0  0  0  0  0  0  0  0  0  0  0  0
   23.6151    7.8596    0.0000 C   0  0  0  0  0  0  0  0  0  0  0  0
   24.3296    8.2721    0.0000 C   0  0  0  0  0  0  0  0  0  0  0  0
   25.0440    7.8596    0.0000 C   0  0  0  0  0  0  0  0  0  0  0  0
   25.7585    8.2721    0.0000 C   0  0  0  0  0  0  0  0  0  0  0  0
   26.4730    7.8596    0.0000 C   0  0  0  0  0  0  0  0  0  0  0  0
   27.1874    8.2721    0.0000 C   0  0  0  0  0  0  0  0  0  0  0  0
   27.9019    7.8596    0.0000 C   0  0  0  0  0  0  0  0  0  0  0  0
   28.6164    8.2721    0.0000 C   0  0  0  0  0  0  0  0  0  0  0  0
   29.3309    7.8596    0.0000 C   0  0  0  0  0  0  0  0  0  0  0  0
   30.0453    8.2721    0.0000 C   0  0  0  0  0  0  0  0  0  0  0  0
  1  2  2  0
  2  3  1  0
  3  4  1  0
  4  5  1  0
  5  6  1  0
  6  7  1  0
  7  8  1  0
  8  9  1  0
  9 10  1  0
 10 11  1  0
 11 12  1  0
 12 13  1  0
 13 14  1  0
 14 15  1  0
 15 16  1  0
 16 17  1  0
 17 18  1  0
 18 19  1  0
 19 20  1  0
 20 21  1  0
 21 22  1  0
 22 23  1  0
 23 24  1  0
 24 25  1  0
 25 26  1  0
M  END
>  <id>  (189) 
1970; 1959

>  <casrn>  (189) 
93924-11-9

>  <smiles (First)>  (189) 


>  <Molecular weight>  (189) 
364.69110107421875

>  <name>  (189) 
Alkenes, C24-28 ??-

>  <Outcome>  (189) 
0

>  <Molecule (RDKit Mol) (InChI Code)>  (189) 
InChI=1S/C26H52/c1-3-5-7-9-11-13-15-17-19-21-23-25-26-24-22-20-18-16-14-12-10-8-6-4-2/h3H,1,4-26H2,2H3

>  <reference>  (189) 
ECHA

>  <molecule_form>  (189) 
V

>  <ID>  (189) 


>  <SMILES>  (189) 
C=CCCCCCCCCCCCCCCCCCCCCCCCC

>  <ROMol>  (189) 
<rdkit.Chem.rdchem.Mol object at 0x0000027F624B1120>

$$$$

     RDKit          2D

 13 12  0  0  0  0  0  0  0  0999 V2000
    5.2698    5.5637    0.0000 C   0  0  0  0  0  0  0  0  0  0  0  0
    4.5553    5.1512    0.0000 C   0  0  0  0  0  0  0  0  0  0  0  0
    4.5553    4.3262    0.0000 C   0  0  0  0  0  0  0  0  0  0  0  0
    3.8409    3.9137    0.0000 C   0  0  0  0  0  0  0  0  0  0  0  0
    3.8409    3.0887    0.0000 N   0  0  0  0  0  0  0  0  0  0  0  0
    3.1264    2.6762    0.0000 C   0  0  0  0  0  0  0  0  0  0  0  0
    3.1264    1.8512    0.0000 C   0  0  0  0  0  0  0  0  0  0  0  0
    2.4119    1.4387    0.0000 C   0  0  0  0  0  0  0  0  0  0  0  0
    2.4119    0.6137    0.0000 C   0  0  0  0  0  0  0  0  0  0  0  0
    4.5553    2.6762    0.0000 C   0  0  0  0  0  0  0  0  0  0  0  0
    4.5553    1.8512    0.0000 C   0  0  0  0  0  0  0  0  0  0  0  0
    5.2698    1.4387    0.0000 C   0  0  0  0  0  0  0  0  0  0  0  0
    5.2698    0.6137    0.0000 C   0  0  0  0  0  0  0  0  0  0  0  0
  1  2  1  0
  2  3  1  0
  3  4  1  0
  4  5  1  0
  5  6  1  0
  6  7  1  0
  7  8  1  0
  8  9  1  0
  5 10  1  0
 10 11  1  0
 11 12  1  0
 12 13  1  0
M  END
>  <id>  (190) 
4015; 4016

>  <casrn>  (190) 
102-82-9

>  <smiles (First)>  (190) 


>  <Molecular weight>  (190) 
185.3494873046875

>  <name>  (190) 
tributylamine

>  <Outcome>  (190) 
1

>  <Molecule (RDKit Mol) (InChI Code)>  (190) 
InChI=1S/C12H27N/c1-4-7-10-13(11-8-5-2)12-9-6-3/h4-12H2,1-3H3

>  <reference>  (190) 
ECHA

>  <molecule_form>  (190) 
V

>  <ID>  (190) 


>  <SMILES>  (190) 
CCCCN(CCCC)CCCC

>  <ROMol>  (190) 
<rdkit.Chem.rdchem.Mol object at 0x0000027F589059E0>

$$$$

     RDKit          2D

  2  1  0  0  0  0  0  0  0  0999 V2000
    0.0000    0.0000    0.0000 C   0  0  0  0  0  0  0  0  0  0  0  0
   -0.8250    0.0000    0.0000 O   0  0  0  0  0  0  0  0  0  0  0  0
  1  2  2  0
M  END
>  <id>  (191) 
900850

>  <casrn>  (191) 
50-00-0

>  <smiles (First)>  (191) 
C=O

>  <Molecular weight>  (191) 
30.02597999572754

>  <name>  (191) 
Formaldehyde

>  <Outcome>  (191) 
1

>  <Molecule (RDKit Mol) (InChI Code)>  (191) 
InChI=1S/CH2O/c1-2/h1H2

>  <reference>  (191) 
ToxValDB

>  <molecule_form>  (191) 
not specified

>  <ID>  (191) 


>  <SMILES>  (191) 
C=O

>  <ROMol>  (191) 
<rdkit.Chem.rdchem.Mol object at 0x0000027F78E26A50>

$$$$

     RDKit          2D

 17 16  0  0  0  0  0  0  0  0999 V2000
    5.4183   -0.0600    0.0000 C   0  0  0  0  0  0  0  0  0  0  0  0
    4.7038   -0.4725    0.0000 C   0  0  0  0  0  0  0  0  0  0  0  0
    4.7038   -1.2975    0.0000 C   0  0  0  0  0  0  0  0  0  0  0  0
    3.9893   -0.0600    0.0000 C   0  0  0  0  0  0  0  0  0  0  0  0
    3.2748   -0.4725    0.0000 O   0  0  0  0  0  0  0  0  0  0  0  0
    2.5604   -0.0600    0.0000 P   0  0  0  0  0  0  0  0  0  0  0  0
    2.9729    0.6545    0.0000 O   0  0  0  0  0  0  0  0  0  0  0  0
    1.8459    0.3525    0.0000 O   0  0  0  0  0  0  0  0  0  0  0  0
    1.8459    1.1775    0.0000 C   0  0  0  0  0  0  0  0  0  0  0  0
    2.5604    1.5900    0.0000 C   0  0  0  0  0  0  0  0  0  0  0  0
    2.5604    2.4150    0.0000 C   0  0  0  0  0  0  0  0  0  0  0  0
    3.2748    1.1775    0.0000 C   0  0  0  0  0  0  0  0  0  0  0  0
    2.1479   -0.7745    0.0000 O   0  0  0  0  0  0  0  0  0  0  0  0
    1.3229   -0.7745    0.0000 C   0  0  0  0  0  0  0  0  0  0  0  0
    0.9104   -0.0600    0.0000 C   0  0  0  0  0  0  0  0  0  0  0  0
    1.3229    0.6545    0.0000 C   0  0  0  0  0  0  0  0  0  0  0  0
    0.0854   -0.0600    0.0000 C   0  0  0  0  0  0  0  0  0  0  0  0
  1  2  1  0
  2  3  1  0
  2  4  1  0
  4  5  1  0
  5  6  1  0
  6  7  2  0
  6  8  1  0
  8  9  1  0
  9 10  1  0
 10 11  1  0
 10 12  1  0
  6 13  1  0
 13 14  1  0
 14 15  1  0
 15 16  1  0
 15 17  1  0
M  END
>  <id>  (192) 
4118

>  <casrn>  (192) 
126-71-6

>  <smiles (First)>  (192) 


>  <Molecular weight>  (192) 
266.31414794921875

>  <name>  (192) 
tris(2-methylpropyl) phosphate

>  <Outcome>  (192) 
0

>  <Molecule (RDKit Mol) (InChI Code)>  (192) 
InChI=1S/C12H27O4P/c1-10(2)7-14-17(13,15-8-11(3)4)16-9-12(5)6/h10-12H,7-9H2,1-6H3

>  <reference>  (192) 
ECHA

>  <molecule_form>  (192) 
A

>  <ID>  (192) 


>  <SMILES>  (192) 
CC(C)COP(=O)(OCC(C)C)OCC(C)C

>  <ROMol>  (192) 
<rdkit.Chem.rdchem.Mol object at 0x0000027F5843A890>

$$$$

     RDKit          2D

 12 11  0  0  0  0  0  0  0  0999 V2000
    1.0461    0.2211    0.0000 O   0  0  0  0  0  0  0  0  0  0  0  0
    1.0461   -0.6039    0.0000 C   0  0  0  0  0  0  0  0  0  0  0  0
    1.0461   -1.4289    0.0000 N   0  0  0  0  0  0  0  0  0  0  0  0
    1.7605   -1.8414    0.0000 C   0  0  0  0  0  0  0  0  0  0  0  0
    2.4750   -1.4289    0.0000 C   0  0  0  0  0  0  0  0  0  0  0  0
    3.1895   -1.8414    0.0000 C   0  0  0  0  0  0  0  0  0  0  0  0
    3.9039   -1.4289    0.0000 C   0  0  0  0  0  0  0  0  0  0  0  0
    4.6184   -1.8414    0.0000 C   0  0  0  0  0  0  0  0  0  0  0  0
    5.3329   -1.4289    0.0000 C   0  0  0  0  0  0  0  0  0  0  0  0
    6.0474   -1.8414    0.0000 N   0  0  0  0  0  0  0  0  0  0  0  0
    6.7618   -1.4289    0.0000 C   0  0  0  0  0  0  0  0  0  0  0  0
    7.4763   -1.0164    0.0000 O   0  0  0  0  0  0  0  0  0  0  0  0
  1  2  2  0
  2  3  2  0
  3  4  1  0
  4  5  1  0
  5  6  1  0
  6  7  1  0
  7  8  1  0
  8  9  1  0
  9 10  1  0
 10 11  2  0
 11 12  2  0
M  END
>  <id>  (193) 
1077

>  <casrn>  (193) 
822-06-0

>  <smiles (First)>  (193) 


>  <Molecular weight>  (193) 
168.19308471679688

>  <name>  (193) 
1,6-diisocyanatohexane

>  <Outcome>  (193) 
1

>  <Molecule (RDKit Mol) (InChI Code)>  (193) 
InChI=1S/C8H12N2O2/c11-7-9-5-3-1-2-4-6-10-8-12/h1-6H2

>  <reference>  (193) 
ECHA

>  <molecule_form>  (193) 
V

>  <ID>  (193) 


>  <SMILES>  (193) 
O=C=NCCCCCCN=C=O

>  <ROMol>  (193) 
<rdkit.Chem.rdchem.Mol object at 0x0000027F585E2970>

$$$$

     RDKit          2D

 10  9  0  0  0  0  0  0  0  0999 V2000
    0.0000    0.3038    0.0000 C   0  0  0  0  0  0  0  0  0  0  0  0
    0.7145   -0.1087    0.0000 C   0  0  0  0  0  0  0  0  0  0  0  0
    1.4289    0.3038    0.0000 C   0  0  0  0  0  0  0  0  0  0  0  0
    2.1434   -0.1087    0.0000 C   0  0  0  0  0  0  0  0  0  0  0  0
    2.8579    0.3038    0.0000 C   0  0  0  0  0  0  0  0  0  0  0  0
    3.5724   -0.1087    0.0000 O   0  0  0  0  0  0  0  0  0  0  0  0
    4.2868    0.3038    0.0000 C   0  0  0  0  0  0  0  0  0  0  0  0
    4.2868    1.1288    0.0000 O   0  0  0  0  0  0  0  0  0  0  0  0
    5.0013   -0.1087    0.0000 C   0  0  0  0  0  0  0  0  0  0  0  0
    5.7158    0.3038    0.0000 C   0  0  0  0  0  0  0  0  0  0  0  0
  1  2  1  0
  2  3  1  0
  3  4  1  0
  4  5  1  0
  5  6  1  0
  6  7  1  0
  7  8  2  0
  7  9  1  0
  9 10  1  0
M  END
>  <id>  (194) 
274214; 274217

>  <casrn>  (194) 
624-54-4

>  <smiles (First)>  (194) 
CCCCCOC(=O)CC

>  <Molecular weight>  (194) 
144.21144104003906

>  <name>  (194) 
Pentyl propionate

>  <Outcome>  (194) 
0

>  <Molecule (RDKit Mol) (InChI Code)>  (194) 
InChI=1S/C8H16O2/c1-3-5-6-7-10-8(9)4-2/h3-7H2,1-2H3

>  <reference>  (194) 
ToxValDB

>  <molecule_form>  (194) 
not specified

>  <ID>  (194) 


>  <SMILES>  (194) 
CCCCCOC(=O)CC

>  <ROMol>  (194) 
<rdkit.Chem.rdchem.Mol object at 0x0000027F58444F20>

$$$$

     RDKit          2D

  5  4  0  0  0  0  0  0  0  0999 V2000
    0.8250   -0.8250    0.0000 C   0  0  0  0  0  0  0  0  0  0  0  0
    0.8250    0.0000    0.0000 S   0  0  0  0  0  0  0  0  0  0  0  0
    0.8250    0.8250    0.0000 O   0  0  0  0  0  0  0  0  0  0  0  0
    1.6500   -0.0000    0.0000 O   0  0  0  0  0  0  0  0  0  0  0  0
    0.0000    0.0000    0.0000 Cl  0  0  0  0  0  0  0  0  0  0  0  0
  1  2  1  0
  2  3  2  0
  2  4  2  0
  2  5  1  0
M  END
>  <id>  (195) 
3428

>  <casrn>  (195) 
124-63-0

>  <smiles (First)>  (195) 


>  <Molecular weight>  (195) 
114.55131530761719

>  <name>  (195) 
methanesulfonyl chloride

>  <Outcome>  (195) 
1

>  <Molecule (RDKit Mol) (InChI Code)>  (195) 
InChI=1S/CH3ClO2S/c1-5(2,3)4/h1H3

>  <reference>  (195) 
ECHA

>  <molecule_form>  (195) 
V

>  <ID>  (195) 


>  <SMILES>  (195) 
CS(=O)(=O)Cl

>  <ROMol>  (195) 
<rdkit.Chem.rdchem.Mol object at 0x0000027F5846E820>

$$$$

     RDKit          2D

 21 21  0  0  0  0  0  0  0  0999 V2000
   -0.1217    2.4531    0.0000 C   0  0  0  0  0  0  0  0  0  0  0  0
    0.5928    2.0406    0.0000 C   0  0  0  0  0  0  0  0  0  0  0  0
    1.3073    2.4531    0.0000 C   0  0  0  0  0  0  0  0  0  0  0  0
    0.5928    1.2156    0.0000 C   0  0  0  0  0  0  0  0  0  0  0  0
    1.3073    0.8031    0.0000 C   0  0  0  0  0  0  0  0  0  0  0  0
    1.3073   -0.0219    0.0000 C   0  0  0  0  0  0  0  0  0  0  0  0
    2.0217   -0.4344    0.0000 C   0  0  0  0  0  0  0  0  0  0  0  0
    2.0217   -1.2594    0.0000 C   0  0  0  0  0  0  0  0  0  0  0  0
    2.7362   -0.0219    0.0000 C   0  0  0  0  0  0  0  0  0  0  0  0
    0.5928   -0.4344    0.0000 C   0  0  0  0  0  0  0  0  0  0  0  0
    0.5928   -1.2594    0.0000 N   0  0  0  0  0  0  0  0  0  0  0  0
    1.3073   -1.6719    0.0000 C   0  0  0  0  0  0  0  0  0  0  0  0
    2.0217   -2.0844    0.0000 O   0  0  0  0  0  0  0  0  0  0  0  0
   -0.1217   -0.0219    0.0000 C   0  0  0  0  0  0  0  0  0  0  0  0
   -0.8361   -0.4344    0.0000 C   0  0  0  0  0  0  0  0  0  0  0  0
   -1.5506   -0.0219    0.0000 C   0  0  0  0  0  0  0  0  0  0  0  0
   -0.8361   -1.2594    0.0000 C   0  0  0  0  0  0  0  0  0  0  0  0
   -0.1217    0.8031    0.0000 C   0  0  0  0  0  0  0  0  0  0  0  0
   -0.8361    1.2156    0.0000 N   0  0  0  0  0  0  0  0  0  0  0  0
   -0.8361    2.0406    0.0000 C   0  0  0  0  0  0  0  0  0  0  0  0
   -0.8361    2.8656    0.0000 O   0  0  0  0  0  0  0  0  0  0  0  0
  1  2  1  0
  2  3  1  0
  2  4  1  0
  4  5  2  0
  5  6  1  0
  6  7  1  0
  7  8  1  0
  7  9  1  0
  6 10  2  0
 10 11  1  0
 11 12  2  0
 12 13  2  0
 10 14  1  0
 14 15  1  0
 15 16  1  0
 15 17  1  0
 14 18  2  0
  4 18  1  0
 18 19  1  0
 19 20  2  0
 20 21  2  0
M  END
>  <id>  (196) 
1295

>  <casrn>  (196) 
2162-73-4

>  <smiles (First)>  (196) 


>  <Molecular weight>  (196) 
286.3687744140625

>  <name>  (196) 
2,4-diisocyanato-1,3,5-triisopropylbenzene

>  <Outcome>  (196) 
1

>  <Molecule (RDKit Mol) (InChI Code)>  (196) 
InChI=1S/C17H22N2O2/c1-10(2)13-7-14(11(3)4)17(19-9-21)15(12(5)6)16(13)18-8-20/h7,10-12H,1-6H3

>  <reference>  (196) 
ECHA

>  <molecule_form>  (196) 
A

>  <ID>  (196) 


>  <SMILES>  (196) 
CC(C)c1cc(C(C)C)c(N=C=O)c(C(C)C)c1N=C=O

>  <ROMol>  (196) 
<rdkit.Chem.rdchem.Mol object at 0x0000027F6246B9E0>

$$$$

     RDKit          2D

 10  9  0  0  0  0  0  0  0  0999 V2000
    1.3336   -4.7227    0.0000 C   0  0  0  0  0  0  0  0  0  0  0  0
    1.3336   -3.8977    0.0000 C   0  0  0  0  0  0  0  0  0  0  0  0
    0.6192   -3.4852    0.0000 C   0  0  0  0  0  0  0  0  0  0  0  0
    0.6192   -2.6602    0.0000 N   0  0  0  0  0  0  0  0  0  0  0  0
   -0.0953   -2.2477    0.0000 C   0  0  0  0  0  0  0  0  0  0  0  0
   -0.0953   -1.4227    0.0000 C   0  0  0  0  0  0  0  0  0  0  0  0
   -0.8098   -1.0102    0.0000 C   0  0  0  0  0  0  0  0  0  0  0  0
    1.3336   -2.2477    0.0000 C   0  0  0  0  0  0  0  0  0  0  0  0
    1.3336   -1.4227    0.0000 C   0  0  0  0  0  0  0  0  0  0  0  0
    2.0481   -1.0102    0.0000 C   0  0  0  0  0  0  0  0  0  0  0  0
  1  2  1  0
  2  3  1  0
  3  4  1  0
  4  5  1  0
  5  6  1  0
  6  7  1  0
  4  8  1  0
  8  9  1  0
  9 10  1  0
M  END
>  <id>  (197) 
2385

>  <casrn>  (197) 
102-69-2

>  <smiles (First)>  (197) 


>  <Molecular weight>  (197) 
143.26974487304688

>  <name>  (197) 
N,N-dipropylpropan-1-amine

>  <Outcome>  (197) 
1

>  <Molecule (RDKit Mol) (InChI Code)>  (197) 
InChI=1S/C9H21N/c1-4-7-10(8-5-2)9-6-3/h4-9H2,1-3H3

>  <reference>  (197) 
ECHA

>  <molecule_form>  (197) 
V

>  <ID>  (197) 


>  <SMILES>  (197) 
CCCN(CCC)CCC

>  <ROMol>  (197) 
<rdkit.Chem.rdchem.Mol object at 0x0000027F78E2C820>

$$$$

     RDKit          2D

 20 19  0  0  0  0  0  0  0  0999 V2000
   -2.4498   -1.6672    0.0000 C   0  0  0  0  0  0  0  0  0  0  0  0
   -1.7353   -1.2547    0.0000 C   0  0  0  0  0  0  0  0  0  0  0  0
   -1.0209   -1.6672    0.0000 C   0  0  0  0  0  0  0  0  0  0  0  0
   -0.3064   -1.2547    0.0000 C   0  0  0  0  0  0  0  0  0  0  0  0
    0.4081   -1.6672    0.0000 C   0  0  0  0  0  0  0  0  0  0  0  0
    1.1225   -1.2547    0.0000 C   0  0  0  0  0  0  0  0  0  0  0  0
    1.8370   -1.6672    0.0000 C   0  0  0  0  0  0  0  0  0  0  0  0
    2.5515   -1.2547    0.0000 C   0  0  0  0  0  0  0  0  0  0  0  0
    3.2660   -1.6672    0.0000 C   0  0  0  0  0  0  0  0  0  0  0  0
    3.2660   -2.4922    0.0000 C   0  0  0  0  0  0  0  0  0  0  0  0
    3.9804   -1.2547    0.0000 C   0  0  0  0  0  0  0  0  0  0  0  0
    3.9804   -0.4297    0.0000 C   0  0  0  0  0  0  0  0  0  0  0  0
    4.6949   -1.6672    0.0000 C   0  0  0  0  0  0  0  0  0  0  0  0
    5.4094   -1.2547    0.0000 C   0  0  0  0  0  0  0  0  0  0  0  0
    6.1238   -1.6672    0.0000 C   0  0  0  0  0  0  0  0  0  0  0  0
    6.8383   -1.2547    0.0000 C   0  0  0  0  0  0  0  0  0  0  0  0
    7.5528   -1.6672    0.0000 C   0  0  0  0  0  0  0  0  0  0  0  0
    8.2673   -1.2547    0.0000 C   0  0  0  0  0  0  0  0  0  0  0  0
    8.9817   -1.6672    0.0000 C   0  0  0  0  0  0  0  0  0  0  0  0
    9.6962   -1.2547    0.0000 C   0  0  0  0  0  0  0  0  0  0  0  0
  1  2  1  0
  2  3  1  0
  3  4  1  0
  4  5  1  0
  5  6  1  0
  6  7  1  0
  7  8  1  0
  8  9  1  0
  9 10  1  0
  9 11  1  0
 11 12  1  0
 11 13  1  0
 13 14  1  0
 14 15  1  0
 15 16  1  0
 16 17  1  0
 17 18  1  0
 18 19  1  0
 19 20  1  0
M  END
>  <id>  (198) 
302157; 906166; 906174; 906175

>  <casrn>  (198) 
68649-11-6

>  <smiles (First)>  (198) 
CCCCCCCCC(C)C(C)CCCCCCCC

>  <Molecular weight>  (198) 
282.5474853515625

>  <name>  (198) 
1-Decene, dimer, hydrogenated

>  <Outcome>  (198) 
1

>  <Molecule (RDKit Mol) (InChI Code)>  (198) 
InChI=1S/C20H42/c1-5-7-9-11-13-15-17-19(3)20(4)18-16-14-12-10-8-6-2/h19-20H,5-18H2,1-4H3

>  <reference>  (198) 
ToxValDB

>  <molecule_form>  (198) 
not specified

>  <ID>  (198) 


>  <SMILES>  (198) 
CCCCCCCCC(C)C(C)CCCCCCCC

>  <ROMol>  (198) 
<rdkit.Chem.rdchem.Mol object at 0x0000027F585CB740>

$$$$

     RDKit          2D

 24 25  0  0  0  0  0  0  0  0999 V2000
    1.4280    0.8255    0.0000 C   0  0  0  0  0  0  0  0  0  0  0  0
    1.4280    0.0005    0.0000 C   0  0  0  0  0  0  0  0  0  0  0  0
    0.7135   -0.4120    0.0000 S   0  0  0  0  0  0  0  0  0  0  0  0
   -0.0009    0.0005    0.0000 O   0  0  0  0  0  0  0  0  0  0  0  0
    0.7135   -1.2370    0.0000 C   0  0  0  0  0  0  0  0  0  0  0  0
    1.3810   -1.7219    0.0000 C   0  0  0  0  0  0  0  0  0  0  0  0
    2.1656   -1.4669    0.0000 C   0  0  0  0  0  0  0  0  0  0  0  0
    2.9502   -1.2120    0.0000 N   0  0  0  0  0  0  0  0  0  0  0  0
    1.1260   -2.5065    0.0000 N   0  0  0  0  0  0  0  0  0  0  0  0
    0.3010   -2.5065    0.0000 N   0  0  0  0  0  0  0  0  0  0  0  0
   -0.1839   -3.1739    0.0000 C   0  0  0  0  0  0  0  0  0  0  0  0
    0.1517   -3.9276    0.0000 C   0  0  0  0  0  0  0  0  0  0  0  0
    0.9722   -4.0138    0.0000 Cl  0  0  0  0  0  0  0  0  0  0  0  0
   -0.3332   -4.5951    0.0000 C   0  0  0  0  0  0  0  0  0  0  0  0
   -1.1537   -4.5088    0.0000 C   0  0  0  0  0  0  0  0  0  0  0  0
   -1.6387   -5.1763    0.0000 C   0  0  0  0  0  0  0  0  0  0  0  0
   -2.1236   -5.8437    0.0000 F   0  0  0  0  0  0  0  0  0  0  0  0
   -2.3061   -4.6913    0.0000 F   0  0  0  0  0  0  0  0  0  0  0  0
   -0.9712   -5.6612    0.0000 F   0  0  0  0  0  0  0  0  0  0  0  0
   -1.4893   -3.7551    0.0000 C   0  0  0  0  0  0  0  0  0  0  0  0
   -1.0044   -3.0877    0.0000 C   0  0  0  0  0  0  0  0  0  0  0  0
   -1.3399   -2.3340    0.0000 Cl  0  0  0  0  0  0  0  0  0  0  0  0
    0.0461   -1.7219    0.0000 C   0  0  0  0  0  0  0  0  0  0  0  0
   -0.7385   -1.4669    0.0000 N   0  0  0  0  0  0  0  0  0  0  0  0
  1  2  1  0
  2  3  1  0
  3  4  2  0
  3  5  1  0
  5  6  1  0
  6  7  1  0
  7  8  3  0
  6  9  2  0
  9 10  1  0
 10 11  1  0
 11 12  2  0
 12 13  1  0
 12 14  1  0
 14 15  2  0
 15 16  1  0
 16 17  1  0
 16 18  1  0
 16 19  1  0
 15 20  1  0
 20 21  2  0
 11 21  1  0
 21 22  1  0
 10 23  1  0
  5 23  2  0
 23 24  1  0
M  END
>  <id>  (199) 
4186

>  <casrn>  (199) 
181587-01-9

>  <smiles (First)>  (199) 


>  <Molecular weight>  (199) 
397.2029724121094

>  <name>  (199) 
unnamed [181587-01-9]

>  <Outcome>  (199) 
0

>  <Molecule (RDKit Mol) (InChI Code)>  (199) 
InChI=1S/C13H9Cl2F3N4OS/c1-2-24(23)11-9(5-19)21-22(12(11)20)10-7(14)3-6(4-8(10)15)13(16,17)18/h3-4H,2,20H2,1H3

>  <reference>  (199) 
ECHA

>  <molecule_form>  (199) 
A

>  <ID>  (199) 


>  <SMILES>  (199) 
CCS(=O)c1c(C#N)nn(-c2c(Cl)cc(C(F)(F)F)cc2Cl)c1N

>  <ROMol>  (199) 
<rdkit.Chem.rdchem.Mol object at 0x0000027F58437900>

$$$$

     RDKit          2D

 36 36  0  0  0  0  0  0  0  0999 V2000
   -3.0211  -11.7331    0.0000 C   0  0  0  0  0  0  0  0  0  0  0  0
   -2.2285  -11.9620    0.0000 C   0  0  0  0  0  0  0  0  0  0  0  0
   -1.6340  -11.3899    0.0000 C   0  0  0  0  0  0  0  0  0  0  0  0
   -0.8413  -11.6187    0.0000 C   0  0  0  0  0  0  0  0  0  0  0  0
   -0.2469  -11.0467    0.0000 C   0  0  0  0  0  0  0  0  0  0  0  0
    0.5458  -11.2755    0.0000 C   0  0  0  0  0  0  0  0  0  0  0  0
    1.1402  -10.7035    0.0000 C   0  0  0  0  0  0  0  0  0  0  0  0
    1.9329  -10.9323    0.0000 C   0  0  0  0  0  0  0  0  0  0  0  0
    2.5273  -10.3603    0.0000 C   0  0  0  0  0  0  0  0  0  0  0  0
    3.3200  -10.5891    0.0000 C   0  0  0  0  0  0  0  0  0  0  0  0
    3.9145  -10.0170    0.0000 C   0  0  0  0  0  0  0  0  0  0  0  0
    4.7071  -10.2459    0.0000 C   0  0  0  0  0  0  0  0  0  0  0  0
    4.9052  -11.0467    0.0000 O   0  0  0  0  0  0  0  0  0  0  0  0
    5.3016   -9.6738    0.0000 O   0  0  0  0  0  0  0  0  0  0  0  0
    6.0942   -9.9026    0.0000 C   0  0  0  0  0  0  0  0  0  0  0  0
    6.6887   -9.3306    0.0000 C   0  0  0  0  0  0  0  0  0  0  0  0
    7.4813   -9.5594    0.0000 O   0  0  0  0  0  0  0  0  0  0  0  0
    8.0758   -8.9874    0.0000 C   0  0  0  0  0  0  0  0  0  0  0  0
    8.8684   -9.2162    0.0000 C   0  0  0  0  0  0  0  0  0  0  0  0
    9.0666  -10.0170    0.0000 O   0  0  0  0  0  0  0  0  0  0  0  0
    8.4721  -10.5891    0.0000 C   0  0  0  0  0  0  0  0  0  0  0  0
    8.6703  -11.3899    0.0000 C   0  0  0  0  0  0  0  0  0  0  0  0
    8.0758  -11.9620    0.0000 O   0  0  0  0  0  0  0  0  0  0  0  0
    9.4629   -8.6442    0.0000 C   0  0  0  0  0  0  0  0  0  0  0  0
    9.3495   -7.8270    0.0000 O   0  0  0  0  0  0  0  0  0  0  0  0
   10.0917   -7.4666    0.0000 C   0  0  0  0  0  0  0  0  0  0  0  0
   10.6637   -8.0611    0.0000 C   0  0  0  0  0  0  0  0  0  0  0  0
   11.4809   -7.9478    0.0000 O   0  0  0  0  0  0  0  0  0  0  0  0
   11.7913   -7.1834    0.0000 C   0  0  0  0  0  0  0  0  0  0  0  0
   12.6085   -7.0700    0.0000 C   0  0  0  0  0  0  0  0  0  0  0  0
   12.9189   -6.3056    0.0000 O   0  0  0  0  0  0  0  0  0  0  0  0
   10.2751   -8.7889    0.0000 C   0  0  0  0  0  0  0  0  0  0  0  0
   10.6354   -9.5310    0.0000 O   0  0  0  0  0  0  0  0  0  0  0  0
   10.1729  -10.2141    0.0000 C   0  0  0  0  0  0  0  0  0  0  0  0
   10.5332  -10.9563    0.0000 C   0  0  0  0  0  0  0  0  0  0  0  0
   10.0707  -11.6394    0.0000 O   0  0  0  0  0  0  0  0  0  0  0  0
  1  2  1  0
  2  3  1  0
  3  4  1  0
  4  5  1  0
  5  6  1  0
  6  7  1  0
  7  8  1  0
  8  9  1  0
  9 10  1  0
 10 11  1  0
 11 12  1  0
 12 13  2  0
 12 14  1  0
 14 15  1  0
 15 16  1  0
 16 17  1  0
 17 18  1  0
 18 19  1  0
 19 20  1  0
 20 21  1  0
 21 22  1  0
 22 23  1  0
 19 24  1  0
 24 25  1  0
 25 26  1  0
 26 27  1  0
 27 28  1  0
 28 29  1  0
 29 30  1  0
 30 31  1  0
 27 32  1  0
 24 32  1  0
 32 33  1  0
 33 34  1  0
 34 35  1  0
 35 36  1  0
M  END
>  <id>  (200) 
2547

>  <casrn>  (200) 
9005-64-5

>  <smiles (First)>  (200) 


>  <Molecular weight>  (200) 
522.669189453125

>  <name>  (200) 
Sorbitan monolaurate, ethoxylated

>  <Outcome>  (200) 
0

>  <Molecule (RDKit Mol) (InChI Code)>  (200) 
InChI=1S/C26H50O10/c1-2-3-4-5-6-7-8-9-10-11-24(30)34-19-18-31-20-22(32-15-12-27)26-25(35-17-14-29)23(21-36-26)33-16-13-28/h22-23,25-29H,2-21H2,1H3

>  <reference>  (200) 
ECHA

>  <molecule_form>  (200) 
A

>  <ID>  (200) 


>  <SMILES>  (200) 
CCCCCCCCCCCC(=O)OCCOCC(OCCO)C1OCC(OCCO)C1OCCO

>  <ROMol>  (200) 
<rdkit.Chem.rdchem.Mol object at 0x0000027F624DDDD0>

$$$$

     RDKit          2D

  3  2  0  0  0  0  0  0  0  0999 V2000
    1.6500   -0.0000    0.0000 S   0  0  0  0  0  0  0  0  0  0  0  0
    2.4750   -0.0000    0.0000 C   0  0  0  0  0  0  0  0  0  0  0  0
    3.3000    0.0000    0.0000 S   0  0  0  0  0  0  0  0  0  0  0  0
  1  2  2  0
  2  3  2  0
M  END
>  <id>  (201) 
3076

>  <casrn>  (201) 
75-15-0

>  <smiles (First)>  (201) 


>  <Molecular weight>  (201) 
76.14070129394531

>  <name>  (201) 
dithioxomethane

>  <Outcome>  (201) 
1

>  <Molecule (RDKit Mol) (InChI Code)>  (201) 
InChI=1S/CS2/c2-1-3

>  <reference>  (201) 
ECHA

>  <molecule_form>  (201) 
G

>  <ID>  (201) 


>  <SMILES>  (201) 
S=C=S

>  <ROMol>  (201) 
<rdkit.Chem.rdchem.Mol object at 0x0000027F585E2660>

$$$$

     RDKit          2D

  8  8  0  0  0  0  0  0  0  0999 V2000
    1.4289    0.8250    0.0000 N   0  0  0  0  0  0  0  0  0  0  0  0
    0.7145    0.4125    0.0000 C   0  0  0  0  0  0  0  0  0  0  0  0
    0.0000    0.8250    0.0000 C   0  0  0  0  0  0  0  0  0  0  0  0
   -0.7145    0.4125    0.0000 C   0  0  0  0  0  0  0  0  0  0  0  0
   -0.7145   -0.4125    0.0000 C   0  0  0  0  0  0  0  0  0  0  0  0
   -1.4289   -0.8250    0.0000 N   0  0  0  0  0  0  0  0  0  0  0  0
   -0.0000   -0.8250    0.0000 C   0  0  0  0  0  0  0  0  0  0  0  0
    0.7145   -0.4125    0.0000 C   0  0  0  0  0  0  0  0  0  0  0  0
  1  2  1  0
  3  2  2  0
  4  3  1  0
  5  4  2  0
  5  6  1  0
  7  5  1  0
  8  7  2  0
  2  8  1  0
M  END
>  <id>  (202) 
201472

>  <casrn>  (202) 
106-50-3

>  <smiles (First)>  (202) 
Nc1ccc(N)cc1

>  <Molecular weight>  (202) 
108.14112091064453

>  <name>  (202) 
1,4-Benzenediamine

>  <Outcome>  (202) 
1

>  <Molecule (RDKit Mol) (InChI Code)>  (202) 
InChI=1S/C6H8N2/c7-5-1-2-6(8)4-3-5/h1-4H,7-8H2

>  <reference>  (202) 
ToxValDB

>  <molecule_form>  (202) 
not specified

>  <ID>  (202) 


>  <SMILES>  (202) 
Nc1ccc(N)cc1

>  <ROMol>  (202) 
<rdkit.Chem.rdchem.Mol object at 0x0000027F585E3510>

$$$$

     RDKit          2D

 10  9  0  0  0  0  0  0  0  0999 V2000
    1.2375    0.7145    0.0000 F   0  0  0  0  0  0  0  0  0  0  0  0
    0.8250    0.0000    0.0000 C   0  0  0  0  0  0  0  0  0  0  0  0
    1.2375   -0.7145    0.0000 F   0  0  0  0  0  0  0  0  0  0  0  0
   -0.0000    0.0000    0.0000 C   0  0  0  0  0  0  0  0  0  0  0  0
   -0.4125    0.7145    0.0000 F   0  0  0  0  0  0  0  0  0  0  0  0
   -0.4125   -0.7145    0.0000 O   0  0  0  0  0  0  0  0  0  0  0  0
    0.0000   -1.4289    0.0000 C   0  0  0  0  0  0  0  0  0  0  0  0
    0.4125   -2.1434    0.0000 F   0  0  0  0  0  0  0  0  0  0  0  0
   -0.7145   -1.8414    0.0000 F   0  0  0  0  0  0  0  0  0  0  0  0
    0.7145   -1.0164    0.0000 F   0  0  0  0  0  0  0  0  0  0  0  0
  1  2  1  0
  2  3  1  0
  2  4  2  0
  4  5  1  0
  4  6  1  0
  6  7  1  0
  7  8  1  0
  7  9  1  0
  7 10  1  0
M  END
>  <id>  (203) 
889

>  <casrn>  (203) 
1187-93-5

>  <smiles (First)>  (203) 


>  <Molecular weight>  (203) 
166.0219268798828

>  <name>  (203) 
1,1,2-trifluoro-2-(trifluoromethoxy)ethene

>  <Outcome>  (203) 
0

>  <Molecule (RDKit Mol) (InChI Code)>  (203) 
InChI=1S/C3F6O/c4-1(5)2(6)10-3(7,8)9

>  <reference>  (203) 
ECHA

>  <molecule_form>  (203) 
G

>  <ID>  (203) 


>  <SMILES>  (203) 
FC(F)=C(F)OC(F)(F)F

>  <ROMol>  (203) 
<rdkit.Chem.rdchem.Mol object at 0x0000027F5842F890>

$$$$

     RDKit          2D

  7  6  0  0  0  0  0  0  0  0999 V2000
    2.6228   -1.5801    0.0000 C   0  0  0  0  0  0  0  0  0  0  0  0
    1.7978   -1.5801    0.0000 C   0  0  0  0  0  0  0  0  0  0  0  0
    1.3853   -0.8656    0.0000 C   0  0  0  0  0  0  0  0  0  0  0  0
    2.0998   -0.4531    0.0000 C   0  0  0  0  0  0  0  0  0  0  0  0
    0.6709   -1.2781    0.0000 C   0  0  0  0  0  0  0  0  0  0  0  0
    0.9728   -0.1511    0.0000 O   0  0  0  0  0  0  0  0  0  0  0  0
    0.1478   -0.1511    0.0000 O   0  0  0  0  0  0  0  0  0  0  0  0
  1  2  1  0
  2  3  1  0
  3  4  1  0
  3  5  1  0
  3  6  1  0
  6  7  1  0
M  END
>  <id>  (204) 
901

>  <casrn>  (204) 
3425-61-4

>  <smiles (First)>  (204) 


>  <Molecular weight>  (204) 
104.1475830078125

>  <name>  (204) 
1,1-dimethylpropyl hydroperoxide

>  <Outcome>  (204) 
1

>  <Molecule (RDKit Mol) (InChI Code)>  (204) 
InChI=1S/C5H12O2/c1-4-5(2,3)7-6/h6H,4H2,1-3H3

>  <reference>  (204) 
ECHA

>  <molecule_form>  (204) 
V

>  <ID>  (204) 


>  <SMILES>  (204) 
CCC(C)(C)OO

>  <ROMol>  (204) 
<rdkit.Chem.rdchem.Mol object at 0x0000027F584D5F20>

$$$$

     RDKit          2D

 12 12  0  0  0  0  0  0  0  0999 V2000
   -0.0000    2.4750    0.0000 O   0  0  0  0  0  0  0  0  0  0  0  0
    0.7145    2.0625    0.0000 C   0  0  0  0  0  0  0  0  0  0  0  0
    1.4289    2.4750    0.0000 Cl  0  0  0  0  0  0  0  0  0  0  0  0
    0.7145    1.2375    0.0000 C   0  0  0  0  0  0  0  0  0  0  0  0
    1.4289    0.8250    0.0000 C   0  0  0  0  0  0  0  0  0  0  0  0
    1.4289   -0.0000    0.0000 C   0  0  0  0  0  0  0  0  0  0  0  0
    0.7145   -0.4125    0.0000 C   0  0  0  0  0  0  0  0  0  0  0  0
    0.7145   -1.2375    0.0000 C   0  0  0  0  0  0  0  0  0  0  0  0
    1.4289   -1.6500    0.0000 O   0  0  0  0  0  0  0  0  0  0  0  0
   -0.0000   -1.6500    0.0000 Cl  0  0  0  0  0  0  0  0  0  0  0  0
   -0.0000    0.0000    0.0000 C   0  0  0  0  0  0  0  0  0  0  0  0
   -0.0000    0.8250    0.0000 C   0  0  0  0  0  0  0  0  0  0  0  0
  1  2  2  0
  2  3  1  0
  2  4  1  0
  4  5  2  0
  5  6  1  0
  6  7  2  0
  7  8  1  0
  8  9  2  0
  8 10  1  0
  7 11  1  0
 11 12  2  0
  4 12  1  0
M  END
>  <id>  (205) 
2622

>  <casrn>  (205) 
100-20-9

>  <smiles (First)>  (205) 


>  <Molecular weight>  (205) 
203.02215576171875

>  <name>  (205) 
benzene-1,4-dicarbonyl dichloride

>  <Outcome>  (205) 
1

>  <Molecule (RDKit Mol) (InChI Code)>  (205) 
InChI=1S/C8H4Cl2O2/c9-7(11)5-1-2-6(4-3-5)8(10)12/h1-4H

>  <reference>  (205) 
ECHA

>  <molecule_form>  (205) 
A

>  <ID>  (205) 


>  <SMILES>  (205) 
O=C(Cl)c1ccc(C(=O)Cl)cc1

>  <ROMol>  (205) 
<rdkit.Chem.rdchem.Mol object at 0x0000027F624B1200>

$$$$

     RDKit          2D

 12 11  0  0  0  0  0  0  0  0999 V2000
   -0.3944    1.7901    0.0000 C   0  0  0  0  0  0  0  0  0  0  0  0
    0.3201    1.3776    0.0000 C   0  0  0  0  0  0  0  0  0  0  0  0
    0.3201    0.5526    0.0000 C   0  0  0  0  0  0  0  0  0  0  0  0
    1.0346    0.1401    0.0000 C   0  0  0  0  0  0  0  0  0  0  0  0
    1.7491    0.5526    0.0000 O   0  0  0  0  0  0  0  0  0  0  0  0
    1.0346   -0.6849    0.0000 O   0  0  0  0  0  0  0  0  0  0  0  0
    1.7491   -1.0974    0.0000 C   0  0  0  0  0  0  0  0  0  0  0  0
    1.7491   -1.9224    0.0000 C   0  0  0  0  0  0  0  0  0  0  0  0
    2.4635   -2.3349    0.0000 C   0  0  0  0  0  0  0  0  0  0  0  0
    2.4635   -0.6849    0.0000 C   0  0  0  0  0  0  0  0  0  0  0  0
    2.4635    0.1401    0.0000 C   0  0  0  0  0  0  0  0  0  0  0  0
    3.1780   -1.0974    0.0000 C   0  0  0  0  0  0  0  0  0  0  0  0
  2  1  1  0
  2  3  2  3
  3  4  1  0
  4  5  2  0
  4  6  1  0
  6  7  1  0
  7  8  1  0
  8  9  1  0
  7 10  1  0
 10 11  1  0
 10 12  1  0
M  END
>  <id>  (206) 
493

>  <casrn>  (206) 
1370711-06-0

>  <smiles (First)>  (206) 


>  <Molecular weight>  (206) 
170.24871826171875

>  <name>  (206) 
-

>  <Outcome>  (206) 
0

>  <Molecule (RDKit Mol) (InChI Code)>  (206) 
InChI=1S/C10H18O2/c1-5-7-10(11)12-9(6-2)8(3)4/h5,7-9H,6H2,1-4H3

>  <reference>  (206) 
ECHA

>  <molecule_form>  (206) 
A

>  <ID>  (206) 


>  <SMILES>  (206) 
CC=CC(=O)OC(CC)C(C)C

>  <ROMol>  (206) 
<rdkit.Chem.rdchem.Mol object at 0x0000027F5846E430>

$$$$

     RDKit          2D

 12 12  0  0  0  0  0  0  0  0999 V2000
   -0.0000    2.4750    0.0000 O   0  0  0  0  0  0  0  0  0  0  0  0
    0.7145    2.0625    0.0000 C   0  0  0  0  0  0  0  0  0  0  0  0
    1.4289    2.4750    0.0000 O   0  0  0  0  0  0  0  0  0  0  0  0
    0.7145    1.2375    0.0000 C   0  0  0  0  0  0  0  0  0  0  0  0
    1.4289    0.8250    0.0000 C   0  0  0  0  0  0  0  0  0  0  0  0
    1.4289   -0.0000    0.0000 C   0  0  0  0  0  0  0  0  0  0  0  0
    0.7145   -0.4125    0.0000 C   0  0  0  0  0  0  0  0  0  0  0  0
   -0.0000   -0.0000    0.0000 C   0  0  0  0  0  0  0  0  0  0  0  0
   -0.0000    0.8250    0.0000 C   0  0  0  0  0  0  0  0  0  0  0  0
   -0.7145    1.2375    0.0000 C   0  0  0  0  0  0  0  0  0  0  0  0
   -0.7145    2.0625    0.0000 O   0  0  0  0  0  0  0  0  0  0  0  0
   -1.4289    0.8250    0.0000 O   0  0  0  0  0  0  0  0  0  0  0  0
  1  2  2  0
  2  3  1  0
  2  4  1  0
  4  5  2  0
  5  6  1  0
  6  7  2  0
  7  8  1  0
  8  9  2  0
  4  9  1  0
  9 10  1  0
 10 11  2  0
 10 12  1  0
M  END
>  <id>  (207) 
2616

>  <casrn>  (207) 
88-99-3

>  <smiles (First)>  (207) 


>  <Molecular weight>  (207) 
166.13084411621094

>  <name>  (207) 
benzene-1,2-dicarboxylic acid

>  <Outcome>  (207) 
0

>  <Molecule (RDKit Mol) (InChI Code)>  (207) 
InChI=1S/C8H6O4/c9-7(10)5-3-1-2-4-6(5)8(11)12/h1-4H,(H,9,10)(H,11,12)

>  <reference>  (207) 
ECHA

>  <molecule_form>  (207) 
A

>  <ID>  (207) 


>  <SMILES>  (207) 
O=C(O)c1ccccc1C(=O)O

>  <ROMol>  (207) 
<rdkit.Chem.rdchem.Mol object at 0x0000027F78E2C3C0>

$$$$

     RDKit          2D

  7  6  0  0  0  0  0  0  0  0999 V2000
   -0.1914    0.7173    0.0000 O   0  0  0  0  0  0  0  0  0  0  0  0
    0.5230    1.1298    0.0000 C   0  0  0  0  0  0  0  0  0  0  0  0
    0.5230    1.9548    0.0000 Cl  0  0  0  0  0  0  0  0  0  0  0  0
    1.2375    0.7173    0.0000 C   0  0  0  0  0  0  0  0  0  0  0  0
    1.9520    1.1298    0.0000 C   0  0  0  0  0  0  0  0  0  0  0  0
    2.6664    0.7173    0.0000 C   0  0  0  0  0  0  0  0  0  0  0  0
    3.3809    1.1298    0.0000 Cl  0  0  0  0  0  0  0  0  0  0  0  0
  1  2  2  0
  2  3  1  0
  2  4  1  0
  4  5  1  0
  5  6  1  0
  6  7  1  0
M  END
>  <id>  (208) 
1838

>  <casrn>  (208) 
4635-59-0

>  <smiles (First)>  (208) 


>  <Molecular weight>  (208) 
140.99583435058594

>  <name>  (208) 
4-chlorobutanoyl chloride

>  <Outcome>  (208) 
1

>  <Molecule (RDKit Mol) (InChI Code)>  (208) 
InChI=1S/C4H6Cl2O/c5-3-1-2-4(6)7/h1-3H2

>  <reference>  (208) 
ECHA

>  <molecule_form>  (208) 
V

>  <ID>  (208) 


>  <SMILES>  (208) 
O=C(Cl)CCCCl

>  <ROMol>  (208) 
<rdkit.Chem.rdchem.Mol object at 0x0000027F6246BD60>

$$$$

     RDKit          2D

  9  8  0  0  0  0  0  0  0  0999 V2000
    1.6916    1.8046    0.0000 C   0  0  0  0  0  0  0  0  0  0  0  0
    2.4061    1.3921    0.0000 S   0  0  0  0  0  0  0  0  0  0  0  0
    3.1205    1.8046    0.0000 C   0  0  0  0  0  0  0  0  0  0  0  0
    3.8350    1.3921    0.0000 C   0  0  0  0  0  0  0  0  0  0  0  0
    4.5495    1.8046    0.0000 C   0  0  0  0  0  0  0  0  0  0  0  0
    4.5495    2.6296    0.0000 N   0  0  0  0  0  0  0  0  0  0  0  0
    5.2640    1.3921    0.0000 C   0  0  0  0  0  0  0  0  0  0  0  0
    5.9784    1.8046    0.0000 O   0  0  0  0  0  0  0  0  0  0  0  0
    5.2640    0.5671    0.0000 O   0  0  0  0  0  0  0  0  0  0  0  0
  1  2  1  0
  2  3  1  0
  3  4  1  0
  4  5  1  0
  5  6  1  0
  5  7  1  0
  7  8  2  0
  7  9  1  0
M  END
>  <id>  (209) 
184

>  <casrn>  (209) 
63-68-3

>  <smiles (First)>  (209) 


>  <Molecular weight>  (209) 
149.21133422851562

>  <name>  (209) 
(2S)-2-amino-4-(methylsulfanyl)butanoic acid

>  <Outcome>  (209) 
0

>  <Molecule (RDKit Mol) (InChI Code)>  (209) 
InChI=1S/C5H11NO2S/c1-9-3-2-4(6)5(7)8/h4H,2-3,6H2,1H3,(H,7,8)

>  <reference>  (209) 
ECHA

>  <molecule_form>  (209) 
A

>  <ID>  (209) 


>  <SMILES>  (209) 
CSCCC(N)C(=O)O

>  <ROMol>  (209) 
<rdkit.Chem.rdchem.Mol object at 0x0000027F58437190>

$$$$

     RDKit          2D

 17 16  0  0  0  0  0  0  0  0999 V2000
    5.7860    0.7883    0.0000 O   0  0  0  0  0  0  0  0  0  0  0  0
    5.0715    1.2008    0.0000 C   0  0  0  0  0  0  0  0  0  0  0  0
    4.3570    0.7883    0.0000 C   0  0  0  0  0  0  0  0  0  0  0  0
    3.9445    1.5027    0.0000 C   0  0  0  0  0  0  0  0  0  0  0  0
    3.1195    1.5027    0.0000 O   0  0  0  0  0  0  0  0  0  0  0  0
    4.7695    0.0738    0.0000 C   0  0  0  0  0  0  0  0  0  0  0  0
    4.3570   -0.6407    0.0000 O   0  0  0  0  0  0  0  0  0  0  0  0
    3.6426    0.3758    0.0000 C   0  0  0  0  0  0  0  0  0  0  0  0
    2.9281    0.7883    0.0000 O   0  0  0  0  0  0  0  0  0  0  0  0
    2.2136    0.3758    0.0000 C   0  0  0  0  0  0  0  0  0  0  0  0
    1.4991    0.7883    0.0000 C   0  0  0  0  0  0  0  0  0  0  0  0
    0.7847    1.2008    0.0000 C   0  0  0  0  0  0  0  0  0  0  0  0
    0.0702    0.7883    0.0000 O   0  0  0  0  0  0  0  0  0  0  0  0
    1.9116    1.5027    0.0000 C   0  0  0  0  0  0  0  0  0  0  0  0
    1.4991    2.2172    0.0000 O   0  0  0  0  0  0  0  0  0  0  0  0
    1.0866    0.0738    0.0000 C   0  0  0  0  0  0  0  0  0  0  0  0
    0.2616    0.0738    0.0000 O   0  0  0  0  0  0  0  0  0  0  0  0
  1  2  1  0
  2  3  1  0
  3  4  1  0
  4  5  1  0
  3  6  1  0
  6  7  1  0
  3  8  1  0
  8  9  1  0
  9 10  1  0
 10 11  1  0
 11 12  1  0
 12 13  1  0
 11 14  1  0
 14 15  1  0
 11 16  1  0
 16 17  1  0
M  END
>  <id>  (210) 
1707

>  <casrn>  (210) 
126-58-9

>  <smiles (First)>  (210) 


>  <Molecular weight>  (210) 
254.27748107910156

>  <name>  (210) 
2-{[3-hydroxy-2,2-bis(hydroxymethyl)propoxy]methyl}-2-(hydroxymethyl)propane-1,3-diol

>  <Outcome>  (210) 
0

>  <Molecule (RDKit Mol) (InChI Code)>  (210) 
InChI=1S/C10H22O7/c11-1-9(2-12,3-13)7-17-8-10(4-14,5-15)6-16/h11-16H,1-8H2

>  <reference>  (210) 
ECHA

>  <molecule_form>  (210) 
A

>  <ID>  (210) 


>  <SMILES>  (210) 
OCC(CO)(CO)COCC(CO)(CO)CO

>  <ROMol>  (210) 
<rdkit.Chem.rdchem.Mol object at 0x0000027F5C1494A0>

$$$$

     RDKit          2D

 20 20  0  0  0  0  0  0  0  0999 V2000
    1.5466    2.5651    0.0000 C   0  0  0  0  0  0  0  0  0  0  0  0
    1.5594    1.7402    0.0000 Si  0  0  0  0  0  4  0  0  0  0  0  0
    0.7448    1.8708    0.0000 C   0  0  0  0  0  0  0  0  0  0  0  0
    2.3696    1.8961    0.0000 O   0  0  0  0  0  0  0  0  0  0  0  0
    2.9096    1.2725    0.0000 Si  0  0  0  0  0  4  0  0  0  0  0  0
    3.4300    1.9126    0.0000 C   0  0  0  0  0  0  0  0  0  0  0  0
    3.6305    0.8711    0.0000 C   0  0  0  0  0  0  0  0  0  0  0  0
    2.6396    0.4929    0.0000 O   0  0  0  0  0  0  0  0  0  0  0  0
    1.8295    0.3370    0.0000 Si  0  0  0  0  0  4  0  0  0  0  0  0
    2.5503   -0.0643    0.0000 C   0  0  0  0  0  0  0  0  0  0  0  0
    2.1237   -0.4338    0.0000 C   0  0  0  0  0  0  0  0  0  0  0  0
    1.5594   -0.4426    0.0000 O   0  0  0  0  0  0  0  0  0  0  0  0
    0.7493   -0.5985    0.0000 Si  0  0  0  0  0  4  0  0  0  0  0  0
    1.0435   -1.3692    0.0000 C   0  0  0  0  0  0  0  0  0  0  0  0
    0.0413   -1.0221    0.0000 C   0  0  0  0  0  0  0  0  0  0  0  0
    0.2092    0.0252    0.0000 O   0  0  0  0  0  0  0  0  0  0  0  0
    0.4792    0.8047    0.0000 Si  0  0  0  0  0  4  0  0  0  0  0  0
   -0.3354    0.9353    0.0000 C   0  0  0  0  0  0  0  0  0  0  0  0
    0.4664    1.6296    0.0000 C   0  0  0  0  0  0  0  0  0  0  0  0
    1.2894    0.9606    0.0000 O   0  0  0  0  0  0  0  0  0  0  0  0
  1  2  1  0
  2  3  1  0
  2  4  1  0
  4  5  1  0
  5  6  1  0
  5  7  1  0
  5  8  1  0
  8  9  1  0
  9 10  1  0
  9 11  1  0
  9 12  1  0
 12 13  1  0
 13 14  1  0
 13 15  1  0
 13 16  1  0
 16 17  1  0
 17 18  1  0
 17 19  1  0
 17 20  1  0
  2 20  1  0
M  END
>  <id>  (211) 
2885; 2884

>  <casrn>  (211) 
541-02-6

>  <smiles (First)>  (211) 


>  <Molecular weight>  (211) 
370.76971435546875

>  <name>  (211) 
decamethyl-1,3,5,7,9,2,4,6,8,10-pentaoxapentasilecane

>  <Outcome>  (211) 
0

>  <Molecule (RDKit Mol) (InChI Code)>  (211) 
InChI=1S/C10H30O5Si5/c1-16(2)11-17(3,4)13-19(7,8)15-20(9,10)14-18(5,6)12-16/h1-10H3

>  <reference>  (211) 
ECHA

>  <molecule_form>  (211) 
A

>  <ID>  (211) 


>  <SMILES>  (211) 
C[Si]1(C)O[Si](C)(C)O[Si](C)(C)O[Si](C)(C)O[Si](C)(C)O1

>  <ROMol>  (211) 
<rdkit.Chem.rdchem.Mol object at 0x0000027F584DE3C0>

$$$$

     RDKit          2D

  5  4  0  0  0  0  0  0  0  0999 V2000
    1.3358    0.3537    0.0000 C   0  0  0  0  0  0  0  0  0  0  0  0
    0.5108    0.3537    0.0000 C   0  0  0  0  0  0  0  0  0  0  0  0
    0.0983   -0.3608    0.0000 C   0  0  0  0  0  0  0  0  0  0  0  0
   -0.7267   -0.3608    0.0000 C   0  0  0  0  0  0  0  0  0  0  0  0
   -1.1392   -1.0753    0.0000 C   0  0  0  0  0  0  0  0  0  0  0  0
  1  2  1  0
  2  3  1  0
  3  4  2  3
  4  5  1  0
M  END
>  <id>  (212) 
305482

>  <casrn>  (212) 
68956-55-8

>  <smiles (First)>  (212) 
CC\C=C\C

>  <Molecular weight>  (212) 
70.13290405273438

>  <name>  (212) 
Hydrocarbons, C5-unsatd.

>  <Outcome>  (212) 
0

>  <Molecule (RDKit Mol) (InChI Code)>  (212) 
InChI=1S/C5H10/c1-3-5-4-2/h3,5H,4H2,1-2H3

>  <reference>  (212) 
ToxValDB

>  <molecule_form>  (212) 
not specified

>  <ID>  (212) 


>  <SMILES>  (212) 
CC=CCC

>  <ROMol>  (212) 
<rdkit.Chem.rdchem.Mol object at 0x0000027F58444BA0>

$$$$

     RDKit          2D

  6  6  0  0  0  0  0  0  0  0999 V2000
    0.7145    1.2375    0.0000 C   0  0  0  0  0  0  0  0  0  0  0  0
    1.4289    0.8250    0.0000 O   0  0  0  0  0  0  0  0  0  0  0  0
    1.4289    0.0000    0.0000 C   0  0  0  0  0  0  0  0  0  0  0  0
    0.7145   -0.4125    0.0000 O   0  0  0  0  0  0  0  0  0  0  0  0
    0.0000    0.0000    0.0000 C   0  0  0  0  0  0  0  0  0  0  0  0
    0.0000    0.8250    0.0000 O   0  0  0  0  0  0  0  0  0  0  0  0
  1  2  1  0
  2  3  1  0
  3  4  1  0
  4  5  1  0
  5  6  1  0
  1  6  1  0
M  END
>  <id>  (213) 
961

>  <casrn>  (213) 
110-88-3

>  <smiles (First)>  (213) 


>  <Molecular weight>  (213) 
90.07794189453125

>  <name>  (213) 
1,3,5-trioxane

>  <Outcome>  (213) 
0

>  <Molecule (RDKit Mol) (InChI Code)>  (213) 
InChI=1S/C3H6O3/c1-4-2-6-3-5-1/h1-3H2

>  <reference>  (213) 
ECHA

>  <molecule_form>  (213) 
V

>  <ID>  (213) 


>  <SMILES>  (213) 
C1OCOCO1

>  <ROMol>  (213) 
<rdkit.Chem.rdchem.Mol object at 0x0000027F6246B350>

$$$$

     RDKit          2D

  9  8  0  0  0  0  0  0  0  0999 V2000
    1.0461    1.4273    0.0000 C   0  0  0  0  0  0  0  0  0  0  0  0
    1.7605    1.8398    0.0000 C   0  0  0  0  0  0  0  0  0  0  0  0
    2.4750    1.4273    0.0000 C   0  0  0  0  0  0  0  0  0  0  0  0
    3.1895    1.8398    0.0000 C   0  0  0  0  0  0  0  0  0  0  0  0
    3.9039    1.4273    0.0000 C   0  0  0  0  0  0  0  0  0  0  0  0
    4.6184    1.8398    0.0000 C   0  0  0  0  0  0  0  0  0  0  0  0
    5.3329    1.4273    0.0000 C   0  0  0  0  0  0  0  0  0  0  0  0
    6.0474    1.8398    0.0000 O   0  0  0  0  0  0  0  0  0  0  0  0
    5.3329    0.6023    0.0000 Cl  0  0  0  0  0  0  0  0  0  0  0  0
  1  2  1  0
  2  3  1  0
  3  4  1  0
  4  5  1  0
  5  6  1  0
  6  7  1  0
  7  8  2  0
  7  9  1  0
M  END
>  <id>  (214) 
3236

>  <casrn>  (214) 
2528-61-2

>  <smiles (First)>  (214) 


>  <Molecular weight>  (214) 
148.63052368164062

>  <name>  (214) 
heptanoyl chloride

>  <Outcome>  (214) 
1

>  <Molecule (RDKit Mol) (InChI Code)>  (214) 
InChI=1S/C7H13ClO/c1-2-3-4-5-6-7(8)9/h2-6H2,1H3

>  <reference>  (214) 
ECHA

>  <molecule_form>  (214) 
V

>  <ID>  (214) 


>  <SMILES>  (214) 
CCCCCCC(=O)Cl

>  <ROMol>  (214) 
<rdkit.Chem.rdchem.Mol object at 0x0000027F584D52E0>

$$$$

     RDKit          2D

 25 27  0  0  0  0  0  0  0  0999 V2000
   -5.1786   -2.1193    0.0000 C   0  0  0  0  0  0  0  0  0  0  0  0
   -4.3536   -2.1193    0.0000 C   0  0  0  0  0  0  0  0  0  0  0  0
   -3.9411   -1.4048    0.0000 N   0  0  0  0  0  0  0  0  0  0  0  0
   -4.3536   -0.6903    0.0000 C   0  0  0  0  0  0  0  0  0  0  0  0
   -3.9411    0.0241    0.0000 C   0  0  0  0  0  0  0  0  0  0  0  0
   -3.1161   -1.4048    0.0000 C   0  0  0  0  0  0  0  0  0  0  0  0
   -2.7036   -0.6903    0.0000 C   0  0  0  0  0  0  0  0  0  0  0  0
   -1.8786   -0.6903    0.0000 C   0  0  0  0  0  0  0  0  0  0  0  0
   -1.4661   -1.4048    0.0000 C   0  0  0  0  0  0  0  0  0  0  0  0
   -0.6411   -1.4048    0.0000 C   0  0  0  0  0  0  0  0  0  0  0  0
   -0.2286   -0.6903    0.0000 C   0  0  0  0  0  0  0  0  0  0  0  0
    0.5964   -0.6903    0.0000 C   0  0  0  0  0  0  0  0  0  0  0  0
    1.0813   -0.0229    0.0000 N   0  0  0  0  0  0  0  0  0  0  0  0
    0.8264    0.7617    0.0000 C   0  0  0  0  0  0  0  0  0  0  0  0
    1.8659   -0.2778    0.0000 C   0  0  0  0  0  0  0  0  0  0  0  0
    2.5804    0.1347    0.0000 C   0  0  0  0  0  0  0  0  0  0  0  0
    3.2949   -0.2778    0.0000 C   0  0  0  0  0  0  0  0  0  0  0  0
    3.2949   -1.1028    0.0000 C   0  0  0  0  0  0  0  0  0  0  0  0
    2.5804   -1.5153    0.0000 C   0  0  0  0  0  0  0  0  0  0  0  0
    1.8659   -1.1028    0.0000 C   0  0  0  0  0  0  0  0  0  0  0  0
    1.0813   -1.3578    0.0000 C   0  0  0  0  0  0  0  0  0  0  0  0
    1.2444   -2.1665    0.0000 C   0  0  0  0  0  0  0  0  0  0  0  0
    0.4740   -1.9162    0.0000 C   0  0  0  0  0  0  0  0  0  0  0  0
   -1.8786   -2.1193    0.0000 C   0  0  0  0  0  0  0  0  0  0  0  0
   -2.7036   -2.1193    0.0000 C   0  0  0  0  0  0  0  0  0  0  0  0
  1  2  1  0
  2  3  1  0
  3  4  1  0
  4  5  1  0
  3  6  1  0
  6  7  2  0
  7  8  1  0
  8  9  2  0
 10  9  1  0
 10 11  2  3
 11 12  1  0
 12 13  2  0
 13 14  1  0
 13 15  1  0
 15 16  2  0
 16 17  1  0
 17 18  2  0
 18 19  1  0
 19 20  2  0
 15 20  1  0
 20 21  1  0
 12 21  1  0
 21 22  1  0
 21 23  1  0
  9 24  1  0
 24 25  2  0
  6 25  1  0
M  CHG  1  13   1
M  END
>  <id>  (215) 
1406; 1407

>  <casrn>  (215) 
75535-16-9

>  <smiles (First)>  (215) 


>  <Molecular weight>  (215) 
333.4897766113281

>  <name>  (215) 
2-[2-[4-(diethylamino)phenyl]vinyl]-1,3,3-trimethyl-3H-indolium dihydrogen phosphate

>  <Outcome>  (215) 
1

>  <Molecule (RDKit Mol) (InChI Code)>  (215) 
InChI=1S/C23H29N2/c1-6-25(7-2)19-15-12-18(13-16-19)14-17-22-23(3,4)20-10-8-9-11-21(20)24(22)5/h8-17H,6-7H2,1-5H3/q+1

>  <reference>  (215) 
ECHA

>  <molecule_form>  (215) 
A

>  <ID>  (215) 


>  <SMILES>  (215) 
CCN(CC)c1ccc(C=CC2=[N+](C)c3ccccc3C2(C)C)cc1

>  <ROMol>  (215) 
<rdkit.Chem.rdchem.Mol object at 0x0000027F5C149200>

$$$$

     RDKit          2D

  6  5  0  0  0  0  0  0  0  0999 V2000
    0.7746    1.3786    0.0000 C   0  0  0  0  0  0  0  0  0  0  0  0
    1.1871    0.6641    0.0000 C   0  0  0  0  0  0  0  0  0  0  0  0
    2.0121    0.6641    0.0000 O   0  0  0  0  0  0  0  0  0  0  0  0
    0.7746   -0.0503    0.0000 C   0  0  0  0  0  0  0  0  0  0  0  0
    1.1871   -0.7648    0.0000 O   0  0  0  0  0  0  0  0  0  0  0  0
   -0.0504   -0.0503    0.0000 O   0  0  0  0  0  0  0  0  0  0  0  0
  1  2  1  0
  2  3  1  0
  2  4  1  0
  4  5  2  0
  4  6  1  0
M  END
>  <id>  (216) 
1487; 1486; 1488; 3849; 2749

>  <casrn>  (216) 
10326-41-7

>  <smiles (First)>  (216) 


>  <Molecular weight>  (216) 
89.67476501464844

>  <name>  (216) 
2-hydroxypropanoic acid

>  <Outcome>  (216) 
0

>  <Molecule (RDKit Mol) (InChI Code)>  (216) 
InChI=1S/C3H6O3/c1-2(4)3(5)6/h2,4H,1H3,(H,5,6)

>  <reference>  (216) 
ECHA

>  <molecule_form>  (216) 
A

>  <ID>  (216) 


>  <SMILES>  (216) 
CC(O)C(=O)O

>  <ROMol>  (216) 
<rdkit.Chem.rdchem.Mol object at 0x0000027F58419EB0>

$$$$

     RDKit          2D

  7  7  0  0  0  0  0  0  0  0999 V2000
    0.5678    1.9393    0.0000 C   0  0  0  0  0  0  0  0  0  0  0  0
    0.5678    1.1143    0.0000 C   0  0  0  0  0  0  0  0  0  0  0  0
    1.2352    0.6294    0.0000 N   0  0  0  0  0  0  0  0  0  0  0  0
    0.9803   -0.1553    0.0000 C   0  0  0  0  0  0  0  0  0  0  0  0
    0.1553   -0.1553    0.0000 C   0  0  0  0  0  0  0  0  0  0  0  0
   -0.0997    0.6294    0.0000 N   0  0  0  0  0  0  0  0  0  0  0  0
   -0.8843    0.8843    0.0000 C   0  0  0  0  0  0  0  0  0  0  0  0
  1  2  1  0
  2  3  2  0
  3  4  1  0
  4  5  2  0
  5  6  1  0
  2  6  1  0
  6  7  1  0
M  END
>  <id>  (217) 
940

>  <casrn>  (217) 
1739-84-0

>  <smiles (First)>  (217) 


>  <Molecular weight>  (217) 
96.13041687011719

>  <name>  (217) 
1,2-dimethyl-1H-imidazole

>  <Outcome>  (217) 
1

>  <Molecule (RDKit Mol) (InChI Code)>  (217) 
InChI=1S/C5H8N2/c1-5-6-3-4-7(5)2/h3-4H,1-2H3

>  <reference>  (217) 
ECHA

>  <molecule_form>  (217) 
A

>  <ID>  (217) 


>  <SMILES>  (217) 
Cc1nccn1C

>  <ROMol>  (217) 
<rdkit.Chem.rdchem.Mol object at 0x0000027F5843A350>

$$$$

     RDKit          2D

 27 28  0  0  0  0  0  0  0  0999 V2000
    0.0714    0.0000    0.0000 C   0  0  0  0  0  0  0  0  0  0  0  0
   -0.6430   -0.4125    0.0000 O   0  0  0  0  0  0  0  0  0  0  0  0
   -0.6430   -1.2375    0.0000 C   0  0  0  0  0  0  0  0  0  0  0  0
    0.0714   -1.6500    0.0000 N   0  0  0  0  0  0  0  0  0  0  0  0
    0.0714   -2.4750    0.0000 C   0  0  0  0  0  0  0  0  0  0  0  0
    0.7859   -2.8875    0.0000 O   0  0  0  0  0  0  0  0  0  0  0  0
    0.7859   -3.7125    0.0000 C   0  0  0  0  0  0  0  0  0  0  0  0
   -0.6430   -2.8875    0.0000 N   0  0  0  0  0  0  0  0  0  0  0  0
   -1.3575   -2.4750    0.0000 C   0  0  0  0  0  0  0  0  0  0  0  0
   -2.0720   -2.8875    0.0000 C   0  0  0  0  0  0  0  0  0  0  0  0
   -2.7864   -2.4750    0.0000 O   0  0  0  0  0  0  0  0  0  0  0  0
   -2.0720   -3.7125    0.0000 C   0  0  0  0  0  0  0  0  0  0  0  0
   -1.3575   -4.1250    0.0000 C   0  0  0  0  0  0  0  0  0  0  0  0
   -1.3575   -4.9500    0.0000 C   0  0  0  0  0  0  0  0  0  0  0  0
   -2.0720   -5.3625    0.0000 C   0  0  0  0  0  0  0  0  0  0  0  0
   -2.7864   -4.9500    0.0000 C   0  0  0  0  0  0  0  0  0  0  0  0
   -3.5009   -5.3625    0.0000 F   0  0  0  0  0  0  0  0  0  0  0  0
   -2.7864   -4.1250    0.0000 C   0  0  0  0  0  0  0  0  0  0  0  0
   -3.5009   -3.7125    0.0000 N   0  0  0  0  0  0  0  0  0  0  0  0
   -3.5009   -2.8875    0.0000 C   0  0  0  0  0  0  0  0  0  0  0  0
   -4.2154   -4.1250    0.0000 S   0  0  0  0  0  0  0  0  0  0  0  0
   -4.6279   -3.4105    0.0000 O   0  0  0  0  0  0  0  0  0  0  0  0
   -3.8029   -4.8395    0.0000 O   0  0  0  0  0  0  0  0  0  0  0  0
   -4.9298   -4.5375    0.0000 C   0  0  0  0  0  0  0  0  0  0  0  0
   -4.9298   -5.3625    0.0000 F   0  0  0  0  0  0  0  0  0  0  0  0
   -5.6443   -4.1250    0.0000 F   0  0  0  0  0  0  0  0  0  0  0  0
   -1.3575   -1.6500    0.0000 N   0  0  0  0  0  0  0  0  0  0  0  0
  1  2  1  0
  2  3  1  0
  3  4  2  0
  4  5  1  0
  5  6  1  0
  6  7  1  0
  5  8  2  0
  8  9  1  0
  9 10  1  0
 10 11  2  0
 10 12  1  0
 12 13  2  0
 13 14  1  0
 14 15  2  0
 15 16  1  0
 16 17  1  0
 16 18  2  0
 12 18  1  0
 18 19  1  0
 19 20  1  0
 19 21  1  0
 21 22  2  0
 21 23  2  0
 21 24  1  0
 24 25  1  0
 24 26  1  0
  9 27  2  0
  3 27  1  0
M  END
>  <id>  (218) 
742

>  <casrn>  (218) 
874195-61-6

>  <smiles (First)>  (218) 


>  <Molecular weight>  (218) 
406.3370361328125

>  <name>  (218) 
-

>  <Outcome>  (218) 
0

>  <Molecule (RDKit Mol) (InChI Code)>  (218) 
InChI=1S/C14H13F3N4O5S/c1-21(27(23,24)12(16)17)9-7(5-4-6-8(9)15)10(22)11-18-13(25-2)20-14(19-11)26-3/h4-6,12H,1-3H3

>  <reference>  (218) 
ECHA

>  <molecule_form>  (218) 
A

>  <ID>  (218) 


>  <SMILES>  (218) 
COc1nc(OC)nc(C(=O)c2cccc(F)c2N(C)S(=O)(=O)C(F)F)n1

>  <ROMol>  (218) 
<rdkit.Chem.rdchem.Mol object at 0x0000027F5843A580>

$$$$

     RDKit          2D

 10 10  0  0  0  0  0  0  0  0999 V2000
    0.7145    2.0625    0.0000 N   0  0  0  0  0  0  0  0  0  0  0  0
    0.7145    1.2375    0.0000 C   0  0  0  0  0  0  0  0  0  0  0  0
    1.4289    0.8250    0.0000 C   0  0  0  0  0  0  0  0  0  0  0  0
    1.4289   -0.0000    0.0000 C   0  0  0  0  0  0  0  0  0  0  0  0
    0.7145   -0.4125    0.0000 C   0  0  0  0  0  0  0  0  0  0  0  0
    0.0000   -0.0000    0.0000 C   0  0  0  0  0  0  0  0  0  0  0  0
    0.0000    0.8250    0.0000 C   0  0  0  0  0  0  0  0  0  0  0  0
   -0.7145    1.2375    0.0000 N   0  0  0  0  0  0  0  0  0  0  0  0
   -1.4289    0.8250    0.0000 O   0  0  0  0  0  0  0  0  0  0  0  0
   -0.7145    2.0625    0.0000 O   0  0  0  0  0  0  0  0  0  0  0  0
  1  2  1  0
  2  3  2  0
  3  4  1  0
  4  5  2  0
  5  6  1  0
  6  7  2  0
  2  7  1  0
  7  8  1  0
  8  9  1  0
  8 10  2  0
M  CHG  2   8   1   9  -1
M  END
>  <id>  (219) 
1683

>  <casrn>  (219) 
88-74-4

>  <smiles (First)>  (219) 


>  <Molecular weight>  (219) 
138.12403869628906

>  <name>  (219) 
2-nitroaniline

>  <Outcome>  (219) 
0

>  <Molecule (RDKit Mol) (InChI Code)>  (219) 
InChI=1S/C6H6N2O2/c7-5-3-1-2-4-6(5)8(9)10/h1-4H,7H2

>  <reference>  (219) 
ECHA

>  <molecule_form>  (219) 
A

>  <ID>  (219) 


>  <SMILES>  (219) 
Nc1ccccc1[N+](=O)[O-]

>  <ROMol>  (219) 
<rdkit.Chem.rdchem.Mol object at 0x0000027F58437200>

$$$$

     RDKit          2D

 12 11  0  0  0  0  0  0  0  0999 V2000
    0.0003    0.0000    0.0000 C   0  0  0  0  0  0  0  0  0  0  0  0
    0.7148    0.4125    0.0000 O   0  0  0  0  0  0  0  0  0  0  0  0
    1.4292    0.0000    0.0000 C   0  0  0  0  0  0  0  0  0  0  0  0
    2.1437    0.4125    0.0000 C   0  0  0  0  0  0  0  0  0  0  0  0
    2.8582    0.0000    0.0000 O   0  0  0  0  0  0  0  0  0  0  0  0
    3.5727    0.4125    0.0000 C   0  0  0  0  0  0  0  0  0  0  0  0
    4.2871    0.0000    0.0000 C   0  0  0  0  0  0  0  0  0  0  0  0
    5.0016    0.4125    0.0000 O   0  0  0  0  0  0  0  0  0  0  0  0
    5.7161    0.0000    0.0000 C   0  0  0  0  0  0  0  0  0  0  0  0
    6.4305    0.4125    0.0000 C   0  0  0  0  0  0  0  0  0  0  0  0
    7.1450    0.0000    0.0000 O   0  0  0  0  0  0  0  0  0  0  0  0
    7.8595    0.4125    0.0000 C   0  0  0  0  0  0  0  0  0  0  0  0
  1  2  1  0
  2  3  1  0
  3  4  1  0
  4  5  1  0
  5  6  1  0
  6  7  1  0
  7  8  1  0
  8  9  1  0
  9 10  1  0
 10 11  1  0
 11 12  1  0
M  END
>  <id>  (220) 
210859

>  <casrn>  (220) 
112-49-2

>  <smiles (First)>  (220) 
COCCOCCOCCOC

>  <Molecular weight>  (220) 
178.2261199951172

>  <name>  (220) 
Triethylene glycol dimethyl ether

>  <Outcome>  (220) 
0

>  <Molecule (RDKit Mol) (InChI Code)>  (220) 
InChI=1S/C8H18O4/c1-9-3-5-11-7-8-12-6-4-10-2/h3-8H2,1-2H3

>  <reference>  (220) 
ToxValDB

>  <molecule_form>  (220) 
not specified

>  <ID>  (220) 


>  <SMILES>  (220) 
COCCOCCOCCOC

>  <ROMol>  (220) 
<rdkit.Chem.rdchem.Mol object at 0x0000027F62474200>

$$$$

     RDKit          2D

 10 12  0  0  0  0  0  0  0  0999 V2000
   -1.1322   -0.1838    0.0000 C   0  0  0  0  0  0  0  0  0  0  0  0
   -1.6171   -0.8512    0.0000 C   0  0  0  0  0  0  0  0  0  0  0  0
   -1.1322   -1.5187    0.0000 C   0  0  0  0  0  0  0  0  0  0  0  0
   -0.3475   -1.2637    0.0000 C   0  0  0  0  0  0  0  0  0  0  0  0
    0.3669   -1.6762    0.0000 C   0  0  0  0  0  0  0  0  0  0  0  0
    0.5732   -0.8512    0.0000 C   0  0  0  0  0  0  0  0  0  0  0  0
    0.3669   -0.0262    0.0000 C   0  0  0  0  0  0  0  0  0  0  0  0
    1.0814   -0.4387    0.0000 C   0  0  0  0  0  0  0  0  0  0  0  0
    1.0814   -1.2637    0.0000 C   0  0  0  0  0  0  0  0  0  0  0  0
   -0.3475   -0.4387    0.0000 C   0  0  0  0  0  0  0  0  0  0  0  0
  2  1  1  0
  3  2  2  0
  4  3  1  0
  4  5  1  0
  6  5  1  0
  7  6  1  0
  8  7  1  0
  9  8  2  0
  7 10  1  0
  1 10  1  0
 10  4  1  0
  5  9  1  0
M  END
>  <id>  (221) 
906168

>  <casrn>  (221) 
77-73-6

>  <smiles (First)>  (221) 
C1C=CC2C3CC(C=C3)C12

>  <Molecular weight>  (221) 
132.20228576660156

>  <name>  (221) 
Dicyclopentadiene

>  <Outcome>  (221) 
1

>  <Molecule (RDKit Mol) (InChI Code)>  (221) 
InChI=1S/C10H12/c1-2-9-7-4-5-8(6-7)10(9)3-1/h1-2,4-5,7-10H,3,6H2

>  <reference>  (221) 
ToxValDB

>  <molecule_form>  (221) 
not specified

>  <ID>  (221) 


>  <SMILES>  (221) 
C1=CC2C3C=CC(C3)C2C1

>  <ROMol>  (221) 
<rdkit.Chem.rdchem.Mol object at 0x0000027F585CBCF0>

$$$$

     RDKit          2D

 19 18  0  0  0  0  0  0  0  0999 V2000
    6.0032    4.2826    0.0000 C   0  0  0  0  0  0  0  0  0  0  0  0
    6.7177    4.6951    0.0000 C   0  0  0  0  0  0  0  0  0  0  0  0
    7.4321    4.2826    0.0000 C   0  0  0  0  0  0  0  0  0  0  0  0
    8.1466    4.6951    0.0000 C   0  0  0  0  0  0  0  0  0  0  0  0
    8.8611    4.2826    0.0000 C   0  0  0  0  0  0  0  0  0  0  0  0
    9.5756    4.6951    0.0000 C   0  0  0  0  0  0  0  0  0  0  0  0
   10.2900    4.2826    0.0000 C   0  0  0  0  0  0  0  0  0  0  0  0
   11.0045    4.6951    0.0000 C   0  0  0  0  0  0  0  0  0  0  0  0
   11.7190    4.2826    0.0000 C   0  0  0  0  0  0  0  0  0  0  0  0
   12.4334    4.6951    0.0000 C   0  0  0  0  0  0  0  0  0  0  0  0
   13.1479    4.2826    0.0000 C   0  0  0  0  0  0  0  0  0  0  0  0
   13.8624    4.6951    0.0000 C   0  0  0  0  0  0  0  0  0  0  0  0
   13.8624    5.5201    0.0000 O   0  0  0  0  0  0  0  0  0  0  0  0
   14.5769    4.2826    0.0000 N   0  0  0  0  0  0  0  0  0  0  0  0
   14.5769    3.4576    0.0000 C   0  0  0  0  0  0  0  0  0  0  0  0
   15.2913    4.6951    0.0000 C   0  0  0  0  0  0  0  0  0  0  0  0
   16.0058    4.2826    0.0000 C   0  0  0  0  0  0  0  0  0  0  0  0
   16.7203    4.6951    0.0000 O   0  0  0  0  0  0  0  0  0  0  0  0
   16.0058    3.4576    0.0000 O   0  0  0  0  0  0  0  0  0  0  0  0
  1  2  1  0
  2  3  1  0
  3  4  1  0
  4  5  1  0
  5  6  1  0
  6  7  1  0
  7  8  1  0
  8  9  1  0
  9 10  1  0
 10 11  1  0
 11 12  1  0
 12 13  2  0
 12 14  1  0
 14 15  1  0
 14 16  1  0
 16 17  1  0
 17 18  2  0
 17 19  1  0
M  END
>  <id>  (222) 
3845; 3846

>  <casrn>  (222) 
137-16-6

>  <smiles (First)>  (222) 


>  <Molecular weight>  (222) 
270.3877258300781

>  <name>  (222) 
sodium 2-(N-methyldodecanamido)acetate

>  <Outcome>  (222) 
1

>  <Molecule (RDKit Mol) (InChI Code)>  (222) 
InChI=1S/C15H29NO3/c1-3-4-5-6-7-8-9-10-11-12-14(17)16(2)13-15(18)19/h3-13H2,1-2H3,(H,18,19)

>  <reference>  (222) 
ECHA

>  <molecule_form>  (222) 
A

>  <ID>  (222) 


>  <SMILES>  (222) 
CCCCCCCCCCCC(=O)N(C)CC(=O)O

>  <ROMol>  (222) 
<rdkit.Chem.rdchem.Mol object at 0x0000027F5842FD60>

$$$$

     RDKit          2D

 48 56  0  0  0  0  0  0  0  0999 V2000
    6.3974    5.2464    0.0000 C   0  0  0  0  0  0  0  0  0  0  0  0
    6.8099    4.5319    0.0000 O   0  0  0  0  0  0  0  0  0  0  0  0
    6.3974    3.8175    0.0000 C   0  0  0  0  0  0  0  0  0  0  0  0
    6.8099    3.1030    0.0000 C   0  0  0  0  0  0  0  0  0  0  0  0
    6.3974    2.3885    0.0000 C   0  0  0  0  0  0  0  0  0  0  0  0
    5.5724    2.3885    0.0000 C   0  0  0  0  0  0  0  0  0  0  0  0
    5.1599    1.6741    0.0000 C   0  0  0  0  0  0  0  0  0  0  0  0
    4.3349    1.6741    0.0000 N   0  0  0  0  0  0  0  0  0  0  0  0
    3.9224    0.9596    0.0000 C   0  0  0  0  0  0  0  0  0  0  0  0
    4.3349    0.2451    0.0000 O   0  0  0  0  0  0  0  0  0  0  0  0
    3.0974    0.9596    0.0000 C   0  0  0  0  0  0  0  0  0  0  0  0
    2.6849    0.2451    0.0000 C   0  0  0  0  0  0  0  0  0  0  0  0
    1.8599    0.2451    0.0000 C   0  0  0  0  0  0  0  0  0  0  0  0
    1.4474    0.9596    0.0000 C   0  0  0  0  0  0  0  0  0  0  0  0
    0.6224    0.9596    0.0000 C   0  0  0  0  0  0  0  0  0  0  0  0
    0.2099    0.2451    0.0000 C   0  0  0  0  0  0  0  0  0  0  0  0
   -0.6151    0.2451    0.0000 C   0  0  0  0  0  0  0  0  0  0  0  0
   -1.0276    0.9596    0.0000 C   0  0  0  0  0  0  0  0  0  0  0  0
   -1.8526    0.9596    0.0000 C   0  0  0  0  0  0  0  0  0  0  0  0
   -2.2651    0.2451    0.0000 O   0  0  0  0  0  0  0  0  0  0  0  0
   -2.2651    1.6741    0.0000 N   0  0  0  0  0  0  0  0  0  0  0  0
   -3.0901    1.6741    0.0000 C   0  0  0  0  0  0  0  0  0  0  0  0
   -3.5026    2.3885    0.0000 C   0  0  0  0  0  0  0  0  0  0  0  0
   -4.3276    2.3885    0.0000 C   0  0  0  0  0  0  0  0  0  0  0  0
   -4.7401    3.1030    0.0000 C   0  0  0  0  0  0  0  0  0  0  0  0
   -4.3276    3.8175    0.0000 C   0  0  0  0  0  0  0  0  0  0  0  0
   -4.7401    4.5319    0.0000 O   0  0  0  0  0  0  0  0  0  0  0  0
   -5.5651    4.5319    0.0000 C   0  0  0  0  0  0  0  0  0  0  0  0
   -3.5026    3.8175    0.0000 C   0  0  0  0  0  0  0  0  0  0  0  0
   -3.0901    3.1030    0.0000 C   0  0  0  0  0  0  0  0  0  0  0  0
   -1.8526    2.3885    0.0000 C   0  0  0  0  0  0  0  0  0  0  0  0
   -2.2651    3.1030    0.0000 O   0  0  0  0  0  0  0  0  0  0  0  0
   -1.0276    2.3885    0.0000 C   0  0  0  0  0  0  0  0  0  0  0  0
   -0.6151    3.1030    0.0000 C   0  0  0  0  0  0  0  0  0  0  0  0
    0.2099    3.1030    0.0000 C   0  0  0  0  0  0  0  0  0  0  0  0
    0.6224    2.3885    0.0000 C   0  0  0  0  0  0  0  0  0  0  0  0
    1.4474    2.3885    0.0000 C   0  0  0  0  0  0  0  0  0  0  0  0
    1.8599    3.1030    0.0000 C   0  0  0  0  0  0  0  0  0  0  0  0
    2.6849    3.1030    0.0000 C   0  0  0  0  0  0  0  0  0  0  0  0
    3.0974    2.3885    0.0000 C   0  0  0  0  0  0  0  0  0  0  0  0
    3.9224    2.3885    0.0000 C   0  0  0  0  0  0  0  0  0  0  0  0
    4.3349    3.1030    0.0000 O   0  0  0  0  0  0  0  0  0  0  0  0
    2.6849    1.6741    0.0000 C   0  0  0  0  0  0  0  0  0  0  0  0
    1.8599    1.6741    0.0000 C   0  0  0  0  0  0  0  0  0  0  0  0
    0.2099    1.6741    0.0000 C   0  0  0  0  0  0  0  0  0  0  0  0
   -0.6151    1.6741    0.0000 C   0  0  0  0  0  0  0  0  0  0  0  0
    5.1599    3.1030    0.0000 C   0  0  0  0  0  0  0  0  0  0  0  0
    5.5724    3.8175    0.0000 C   0  0  0  0  0  0  0  0  0  0  0  0
  1  2  1  0
  2  3  1  0
  3  4  2  0
  4  5  1  0
  5  6  2  0
  6  7  1  0
  7  8  1  0
  8  9  1  0
  9 10  2  0
  9 11  1  0
 11 12  2  0
 12 13  1  0
 13 14  2  0
 14 15  1  0
 15 16  2  0
 16 17  1  0
 17 18  2  0
 18 19  1  0
 19 20  2  0
 19 21  1  0
 21 22  1  0
 22 23  1  0
 23 24  2  0
 24 25  1  0
 25 26  2  0
 26 27  1  0
 27 28  1  0
 26 29  1  0
 29 30  2  0
 23 30  1  0
 21 31  1  0
 31 32  2  0
 31 33  1  0
 33 34  2  0
 34 35  1  0
 35 36  2  0
 36 37  1  0
 37 38  1  0
 38 39  2  0
 39 40  1  0
 40 41  1  0
  8 41  1  0
 41 42  2  0
 40 43  2  0
 11 43  1  0
 43 44  1  0
 14 44  1  0
 37 44  2  0
 36 45  1  0
 15 45  1  0
 45 46  2  0
 18 46  1  0
 33 46  1  0
  6 47  1  0
 47 48  2  0
  3 48  1  0
M  END
>  <id>  (223) 
1887

>  <casrn>  (223) 
83524-75-8

>  <smiles (First)>  (223) 


>  <Molecular weight>  (223) 
630.6442260742188

>  <name>  (223) 
7,18-bis[(4-methoxyphenyl)methyl]-7,18-diazaheptacyclo[14.6.2.2??,????.0??,????.0????,????.0????,????.0??????,??????]hexacosa-1(22),2,4,9,11,13(23),14,16(24),20,25-decaene-6,8,17,19-tetrone

>  <Outcome>  (223) 
0

>  <Molecule (RDKit Mol) (InChI Code)>  (223) 
InChI=1S/C40H26N2O6/c1-47-23-7-3-21(4-8-23)19-41-37(43)29-15-11-25-27-13-17-31-36-32(40(46)42(39(31)45)20-22-5-9-24(48-2)10-6-22)18-14-28(34(27)36)26-12-16-30(38(41)44)35(29)33(25)26/h3-18H,19-20H2,1-2H3

>  <reference>  (223) 
ECHA

>  <molecule_form>  (223) 
A

>  <ID>  (223) 


>  <SMILES>  (223) 
COc1ccc(CN2C(=O)c3ccc4c5ccc6c7c(ccc(c8ccc(c3c48)C2=O)c75)C(=O)N(Cc2ccc(OC)cc2)C6=O)cc1

>  <ROMol>  (223) 
<rdkit.Chem.rdchem.Mol object at 0x0000027F58408E40>

$$$$

     RDKit          2D

 14 14  0  0  0  0  0  0  0  0999 V2000
   -0.7220    2.1155    0.0000 C   0  0  0  0  0  0  0  0  0  0  0  0
   -0.0075    2.5280    0.0000 C   0  0  0  0  0  0  0  0  0  0  0  0
    0.7070    2.1155    0.0000 C   0  0  0  0  0  0  0  0  0  0  0  0
    0.7070    1.2905    0.0000 C   0  0  0  0  0  0  0  0  0  0  0  0
    1.4214    0.8780    0.0000 C   0  0  0  0  0  0  0  0  0  0  0  0
    1.4214    0.0530    0.0000 C   0  0  0  0  0  0  0  0  0  0  0  0
    0.7070   -0.3595    0.0000 C   0  0  0  0  0  0  0  0  0  0  0  0
    0.7070   -1.1845    0.0000 C   0  0  0  0  0  0  0  0  0  0  0  0
   -0.0075    0.0530    0.0000 C   0  0  0  0  0  0  0  0  0  0  0  0
   -0.0075    0.8780    0.0000 C   0  0  0  0  0  0  0  0  0  0  0  0
   -0.0075    3.3530    0.0000 C   0  0  0  0  0  0  0  0  0  0  0  0
   -0.7220    3.7655    0.0000 C   0  0  0  0  0  0  0  0  0  0  0  0
   -0.7220    4.5905    0.0000 C   0  0  0  0  0  0  0  0  0  0  0  0
   -1.4364    5.0030    0.0000 O   0  0  0  0  0  0  0  0  0  0  0  0
  1  2  1  0
  2  3  2  3
  3  4  1  0
  4  5  2  0
  5  6  1  0
  6  7  2  0
  7  8  1  0
  7  9  1  0
  9 10  2  0
  4 10  1  0
  2 11  1  0
 11 12  1  0
 12 13  1  0
 13 14  2  0
M  END
>  <id>  (224) 
4169

>  <casrn>  (224) 
1226911-69-8

>  <smiles (First)>  (224) 


>  <Molecular weight>  (224) 
188.2655487060547

>  <name>  (224) 
unnamed [1226911-69-8]

>  <Outcome>  (224) 
0

>  <Molecule (RDKit Mol) (InChI Code)>  (224) 
InChI=1S/C13H16O/c1-11-5-7-13(8-6-11)10-12(2)4-3-9-14/h5-10H,3-4H2,1-2H3

>  <reference>  (224) 
ECHA

>  <molecule_form>  (224) 
A

>  <ID>  (224) 


>  <SMILES>  (224) 
CC(=Cc1ccc(C)cc1)CCC=O

>  <ROMol>  (224) 
<rdkit.Chem.rdchem.Mol object at 0x0000027F58419890>

$$$$

     RDKit          2D

  3  2  0  0  0  0  0  0  0  0999 V2000
    1.1822   -0.5082    0.0000 Cl  0  0  0  0  0  0  0  0  0  0  0  0
    0.7697    0.2063    0.0000 C   0  0  0  0  0  0  0  0  0  0  0  0
   -0.0553    0.2063    0.0000 C   0  0  0  0  0  0  0  0  0  0  0  0
  1  2  1  0
  2  3  2  0
M  END
>  <id>  (225) 
314292

>  <casrn>  (225) 
75-01-4

>  <smiles (First)>  (225) 
ClC=C

>  <Molecular weight>  (225) 
62.49821853637695

>  <name>  (225) 
Vinyl chloride

>  <Outcome>  (225) 
0

>  <Molecule (RDKit Mol) (InChI Code)>  (225) 
InChI=1S/C2H3Cl/c1-2-3/h2H,1H2

>  <reference>  (225) 
ToxValDB

>  <molecule_form>  (225) 
not specified

>  <ID>  (225) 


>  <SMILES>  (225) 
C=CCl

>  <ROMol>  (225) 
<rdkit.Chem.rdchem.Mol object at 0x0000027F585E30B0>

$$$$

     RDKit          2D

 10 10  0  0  0  0  0  0  0  0999 V2000
    0.3741   -1.1256    0.0000 C   0  0  0  0  0  0  0  0  0  0  0  0
    0.3741   -0.3006    0.0000 C   0  0  0  0  0  0  0  0  0  0  0  0
    1.0886    0.1119    0.0000 C   0  0  0  0  0  0  0  0  0  0  0  0
    1.0886    0.9369    0.0000 C   0  0  0  0  0  0  0  0  0  0  0  0
    1.8030    1.3494    0.0000 O   0  0  0  0  0  0  0  0  0  0  0  0
    0.3741    1.3494    0.0000 C   0  0  0  0  0  0  0  0  0  0  0  0
   -0.3404    0.9369    0.0000 C   0  0  0  0  0  0  0  0  0  0  0  0
   -0.6225    1.7121    0.0000 C   0  0  0  0  0  0  0  0  0  0  0  0
   -1.1528    0.7936    0.0000 C   0  0  0  0  0  0  0  0  0  0  0  0
   -0.3404    0.1119    0.0000 C   0  0  0  0  0  0  0  0  0  0  0  0
  1  2  1  0
  3  2  2  0
  4  3  1  0
  4  5  2  0
  6  4  1  0
  7  6  1  0
  7  8  1  0
  7  9  1  0
 10  7  1  0
  2 10  1  0
M  END
>  <id>  (226) 
326219; 326237; 948610

>  <casrn>  (226) 
78-59-1

>  <smiles (First)>  (226) 
CC1=CC(=O)CC(C)(C)C1

>  <Molecular weight>  (226) 
138.2068634033203

>  <name>  (226) 
Isophorone

>  <Outcome>  (226) 
1

>  <Molecule (RDKit Mol) (InChI Code)>  (226) 
InChI=1S/C9H14O/c1-7-4-8(10)6-9(2,3)5-7/h4H,5-6H2,1-3H3

>  <reference>  (226) 
ToxValDB

>  <molecule_form>  (226) 
not specified

>  <ID>  (226) 


>  <SMILES>  (226) 
CC1=CC(=O)CC(C)(C)C1

>  <ROMol>  (226) 
<rdkit.Chem.rdchem.Mol object at 0x0000027F585CBAC0>

$$$$

     RDKit          2D

  4  3  0  0  0  0  0  0  0  0999 V2000
    2.0607   -0.7175    0.0000 C   0  0  0  0  0  0  0  0  0  0  0  0
    1.2357   -0.7175    0.0000 C   0  0  0  0  0  0  0  0  0  0  0  0
    0.8232   -0.0030    0.0000 C   0  0  0  0  0  0  0  0  0  0  0  0
   -0.0018   -0.0030    0.0000 O   0  0  0  0  0  0  0  0  0  0  0  0
  1  2  2  0
  2  3  1  0
  3  4  1  0
M  END
>  <id>  (227) 
3769

>  <casrn>  (227) 
107-18-6

>  <smiles (First)>  (227) 


>  <Molecular weight>  (227) 
58.079139709472656

>  <name>  (227) 
prop-2-en-1-ol

>  <Outcome>  (227) 
1

>  <Molecule (RDKit Mol) (InChI Code)>  (227) 
InChI=1S/C3H6O/c1-2-3-4/h2,4H,1,3H2

>  <reference>  (227) 
ECHA

>  <molecule_form>  (227) 
V

>  <ID>  (227) 


>  <SMILES>  (227) 
C=CCO

>  <ROMol>  (227) 
<rdkit.Chem.rdchem.Mol object at 0x0000027F78E2C740>

$$$$

     RDKit          2D

  7  6  0  0  0  0  0  0  0  0999 V2000
    0.0889   -2.2159    0.0000 C   0  0  0  0  0  0  0  0  0  0  0  0
    0.0889   -1.3909    0.0000 C   0  0  0  0  0  0  0  0  0  0  0  0
    0.8034   -0.9784    0.0000 C   0  0  0  0  0  0  0  0  0  0  0  0
    0.8034   -0.1534    0.0000 Si  0  0  0  0  0  4  0  0  0  0  0  0
    0.8034    0.6716    0.0000 O   0  0  0  0  0  0  0  0  0  0  0  0
    1.6284   -0.1534    0.0000 O   0  0  0  0  0  0  0  0  0  0  0  0
   -0.0216   -0.1534    0.0000 O   0  0  0  0  0  0  0  0  0  0  0  0
  1  2  1  0
  2  3  1  0
  3  4  1  0
  4  5  1  0
  4  6  1  0
  4  7  1  0
M  END
>  <id>  (228) 
4109

>  <casrn>  (228) 
93857-00-2

>  <smiles (First)>  (228) 


>  <Molecular weight>  (228) 
119.17137908935547

>  <name>  (228) 
tripotassium propylsilanetris(olate)

>  <Outcome>  (228) 
0

>  <Molecule (RDKit Mol) (InChI Code)>  (228) 
InChI=1S/C3H10O3Si/c1-2-3-7(4,5)6/h4-6H,2-3H2,1H3

>  <reference>  (228) 
ECHA

>  <molecule_form>  (228) 
V

>  <ID>  (228) 


>  <SMILES>  (228) 
CCC[Si](O)(O)O

>  <ROMol>  (228) 
<rdkit.Chem.rdchem.Mol object at 0x0000027F5C144580>

$$$$

     RDKit          2D

  9  8  0  0  0  0  0  0  0  0999 V2000
   -0.6305   -0.7381    0.0000 C   0  0  0  0  0  0  0  0  0  0  0  0
    0.0840   -1.1506    0.0000 C   0  0  0  0  0  0  0  0  0  0  0  0
    0.7985   -0.7381    0.0000 C   0  0  0  0  0  0  0  0  0  0  0  0
    0.7985    0.0869    0.0000 O   0  0  0  0  0  0  0  0  0  0  0  0
    1.5130   -1.1506    0.0000 O   0  0  0  0  0  0  0  0  0  0  0  0
    2.2274   -0.7381    0.0000 C   0  0  0  0  0  0  0  0  0  0  0  0
    2.2274    0.0869    0.0000 O   0  0  0  0  0  0  0  0  0  0  0  0
    2.9419   -1.1506    0.0000 C   0  0  0  0  0  0  0  0  0  0  0  0
    3.6564   -0.7381    0.0000 C   0  0  0  0  0  0  0  0  0  0  0  0
  1  2  1  0
  2  3  1  0
  3  4  2  0
  3  5  1  0
  5  6  1  0
  6  7  2  0
  6  8  1  0
  8  9  1  0
M  END
>  <id>  (229) 
219995

>  <casrn>  (229) 
123-62-6

>  <smiles (First)>  (229) 
CCC(=O)OC(=O)CC

>  <Molecular weight>  (229) 
130.1417999267578

>  <name>  (229) 
Propanoic anhydride

>  <Outcome>  (229) 
0

>  <Molecule (RDKit Mol) (InChI Code)>  (229) 
InChI=1S/C6H10O3/c1-3-5(7)9-6(8)4-2/h3-4H2,1-2H3

>  <reference>  (229) 
ToxValDB

>  <molecule_form>  (229) 
not specified

>  <ID>  (229) 


>  <SMILES>  (229) 
CCC(=O)OC(=O)CC

>  <ROMol>  (229) 
<rdkit.Chem.rdchem.Mol object at 0x0000027F62474740>

$$$$

     RDKit          2D

  6  5  0  0  0  0  0  0  0  0999 V2000
    2.9509   -0.7972    0.0000 C   0  0  0  0  0  0  0  0  0  0  0  0
    2.1259   -0.7972    0.0000 C   0  0  0  0  0  0  0  0  0  0  0  0
    1.7134   -0.0827    0.0000 C   0  0  0  0  0  0  0  0  0  0  0  0
    2.1259    0.6318    0.0000 C   0  0  0  0  0  0  0  0  0  0  0  0
    0.8884   -0.0827    0.0000 C   0  0  0  0  0  0  0  0  0  0  0  0
    0.0634   -0.0827    0.0000 N   0  0  0  0  0  0  0  0  0  0  0  0
  1  2  2  0
  2  3  1  0
  3  4  1  0
  3  5  1  0
  5  6  3  0
M  END
>  <id>  (230) 
1511

>  <casrn>  (230) 
16529-56-9

>  <smiles (First)>  (230) 


>  <Molecular weight>  (230) 
81.11578369140625

>  <name>  (230) 
2-methylbut-3-enenitrile

>  <Outcome>  (230) 
1

>  <Molecule (RDKit Mol) (InChI Code)>  (230) 
InChI=1S/C5H7N/c1-3-5(2)4-6/h3,5H,1H2,2H3

>  <reference>  (230) 
ECHA

>  <molecule_form>  (230) 
V

>  <ID>  (230) 


>  <SMILES>  (230) 
C=CC(C)C#N

>  <ROMol>  (230) 
<rdkit.Chem.rdchem.Mol object at 0x0000027F5C1446D0>

$$$$

     RDKit          2D

  4  3  0  0  0  0  0  0  0  0999 V2000
    1.2375    0.7145    0.0000 O   0  0  0  0  0  0  0  0  0  0  0  0
    0.8250   -0.0000    0.0000 C   0  0  0  0  0  0  0  0  0  0  0  0
    1.2375   -0.7145    0.0000 O   0  0  0  0  0  0  0  0  0  0  0  0
   -0.0000   -0.0000    0.0000 O   0  0  0  0  0  0  0  0  0  0  0  0
  1  2  2  0
  2  3  1  0
  2  4  1  0
M  END
>  <id>  (231) 
2906

>  <casrn>  (231) 
11097-59-9

>  <smiles (First)>  (231) 


>  <Molecular weight>  (231) 
60.0088996887207

>  <name>  (231) 
dialuminium(3+) ion hexamagnesium(2+) ion hexadecahydroxide carbonate

>  <Outcome>  (231) 
0

>  <Molecule (RDKit Mol) (InChI Code)>  (231) 
InChI=1S/CH2O3/c2-1(3)4/h(H2,2,3,4)

>  <reference>  (231) 
ECHA

>  <molecule_form>  (231) 
A

>  <ID>  (231) 


>  <SMILES>  (231) 
O=C(O)O

>  <ROMol>  (231) 
<rdkit.Chem.rdchem.Mol object at 0x0000027F5842F4A0>

$$$$

     RDKit          2D

  8  8  0  0  0  0  0  0  0  0999 V2000
    0.7145    2.0625    0.0000 N   0  0  0  0  0  0  0  0  0  0  0  0
    0.7145    1.2375    0.0000 C   0  0  0  0  0  0  0  0  0  0  0  0
    1.4289    0.8250    0.0000 C   0  0  0  0  0  0  0  0  0  0  0  0
    1.4289    0.0000    0.0000 C   0  0  0  0  0  0  0  0  0  0  0  0
    0.7145   -0.4125    0.0000 C   0  0  0  0  0  0  0  0  0  0  0  0
   -0.0000    0.0000    0.0000 C   0  0  0  0  0  0  0  0  0  0  0  0
   -0.7145   -0.4125    0.0000 N   0  0  0  0  0  0  0  0  0  0  0  0
   -0.0000    0.8250    0.0000 C   0  0  0  0  0  0  0  0  0  0  0  0
  1  2  1  0
  2  3  2  0
  3  4  1  0
  4  5  2  0
  5  6  1  0
  6  7  1  0
  6  8  2  0
  2  8  1  0
M  END
>  <id>  (232) 
2617

>  <casrn>  (232) 
108-45-2

>  <smiles (First)>  (232) 


>  <Molecular weight>  (232) 
108.14112091064453

>  <name>  (232) 
benzene-1,3-diamine

>  <Outcome>  (232) 
1

>  <Molecule (RDKit Mol) (InChI Code)>  (232) 
InChI=1S/C6H8N2/c7-5-2-1-3-6(8)4-5/h1-4H,7-8H2

>  <reference>  (232) 
ECHA

>  <molecule_form>  (232) 
A

>  <ID>  (232) 


>  <SMILES>  (232) 
Nc1cccc(N)c1

>  <ROMol>  (232) 
<rdkit.Chem.rdchem.Mol object at 0x0000027F584D53C0>

$$$$

     RDKit          2D

  7  6  0  0  0  0  0  0  0  0999 V2000
   -0.1915    0.7195    0.0000 O   0  0  0  0  0  0  0  0  0  0  0  0
    0.5230    1.1320    0.0000 C   0  0  0  0  0  0  0  0  0  0  0  0
    0.5230    1.9570    0.0000 O   0  0  0  0  0  0  0  0  0  0  0  0
    1.2375    0.7195    0.0000 C   0  0  0  0  0  0  0  0  0  0  0  0
    1.9520    1.1320    0.0000 N   0  0  0  0  0  0  0  0  0  0  0  0
    2.6664    0.7195    0.0000 C   0  0  0  0  0  0  0  0  0  0  0  0
    3.3809    1.1320    0.0000 O   0  0  0  0  0  0  0  0  0  0  0  0
  1  2  2  0
  2  3  1  0
  2  4  1  0
  4  5  1  0
  5  6  1  0
  6  7  1  0
M  END
>  <id>  (233) 
3848

>  <casrn>  (233) 
70161-44-3

>  <smiles (First)>  (233) 


>  <Molecular weight>  (233) 
104.08464050292969

>  <name>  (233) 
sodium 2-[(hydroxymethyl)amino]acetate

>  <Outcome>  (233) 
0

>  <Molecule (RDKit Mol) (InChI Code)>  (233) 
InChI=1S/C3H7NO3/c5-2-4-1-3(6)7/h4-5H,1-2H2,(H,6,7)

>  <reference>  (233) 
ECHA

>  <molecule_form>  (233) 
A

>  <ID>  (233) 


>  <SMILES>  (233) 
O=C(O)CNCO

>  <ROMol>  (233) 
<rdkit.Chem.rdchem.Mol object at 0x0000027F5C1447B0>

$$$$

     RDKit          2D

 10  9  0  0  0  0  0  0  0  0999 V2000
    2.9980    2.5559    0.0000 C   0  0  0  0  0  0  0  0  0  0  0  0
    3.7125    2.1434    0.0000 C   0  0  0  0  0  0  0  0  0  0  0  0
    4.4270    2.5559    0.0000 C   0  0  0  0  0  0  0  0  0  0  0  0
    5.1414    2.1434    0.0000 C   0  0  0  0  0  0  0  0  0  0  0  0
    5.8559    2.5559    0.0000 C   0  0  0  0  0  0  0  0  0  0  0  0
    6.5704    2.1434    0.0000 C   0  0  0  0  0  0  0  0  0  0  0  0
    7.2849    2.5559    0.0000 C   0  0  0  0  0  0  0  0  0  0  0  0
    7.9993    2.1434    0.0000 C   0  0  0  0  0  0  0  0  0  0  0  0
    8.7138    2.5559    0.0000 O   0  0  0  0  0  0  0  0  0  0  0  0
    7.9993    1.3184    0.0000 Cl  0  0  0  0  0  0  0  0  0  0  0  0
  1  2  1  0
  2  3  1  0
  3  4  1  0
  4  5  1  0
  5  6  1  0
  6  7  1  0
  7  8  1  0
  8  9  2  0
  8 10  1  0
M  END
>  <id>  (234) 
3637

>  <casrn>  (234) 
111-64-8

>  <smiles (First)>  (234) 


>  <Molecular weight>  (234) 
162.6571044921875

>  <name>  (234) 
octanoyl chloride

>  <Outcome>  (234) 
1

>  <Molecule (RDKit Mol) (InChI Code)>  (234) 
InChI=1S/C8H15ClO/c1-2-3-4-5-6-7-8(9)10/h2-7H2,1H3

>  <reference>  (234) 
ECHA

>  <molecule_form>  (234) 
V

>  <ID>  (234) 


>  <SMILES>  (234) 
CCCCCCCC(=O)Cl

>  <ROMol>  (234) 
<rdkit.Chem.rdchem.Mol object at 0x0000027F585E2AC0>

$$$$

     RDKit          2D

  7  6  0  0  0  0  0  0  0  0999 V2000
    0.1105   -1.2375    0.0000 C   0  0  0  0  0  0  0  0  0  0  0  0
    0.8250   -0.8250    0.0000 N   0  0  0  0  0  0  0  0  0  0  0  0
    1.5395   -1.2375    0.0000 C   0  0  0  0  0  0  0  0  0  0  0  0
    0.8250    0.0000    0.0000 S   0  0  0  0  0  0  0  0  0  0  0  0
    0.8250    0.8250    0.0000 O   0  0  0  0  0  0  0  0  0  0  0  0
    1.6500    0.0000    0.0000 O   0  0  0  0  0  0  0  0  0  0  0  0
    0.0000    0.0000    0.0000 Cl  0  0  0  0  0  0  0  0  0  0  0  0
  1  2  1  0
  2  3  1  0
  2  4  1  0
  4  5  2  0
  4  6  2  0
  4  7  1  0
M  END
>  <id>  (235) 
3010; 3006; 3007

>  <casrn>  (235) 
13360-57-1

>  <smiles (First)>  (235) 


>  <Molecular weight>  (235) 
143.59254455566406

>  <name>  (235) 
dimethylsulfamoyl chloride

>  <Outcome>  (235) 
1

>  <Molecule (RDKit Mol) (InChI Code)>  (235) 
InChI=1S/C2H6ClNO2S/c1-4(2)7(3,5)6/h1-2H3

>  <reference>  (235) 
ECHA

>  <molecule_form>  (235) 
G

>  <ID>  (235) 


>  <SMILES>  (235) 
CN(C)S(=O)(=O)Cl

>  <ROMol>  (235) 
<rdkit.Chem.rdchem.Mol object at 0x0000027F58419F20>

$$$$

     RDKit          2D

  9  9  0  0  0  0  0  0  0  0999 V2000
    0.7145    2.0625    0.0000 C   0  0  0  0  0  0  0  0  0  0  0  0
    0.7145    1.2375    0.0000 C   0  0  0  0  0  0  0  0  0  0  0  0
    1.4289    0.8250    0.0000 C   0  0  0  0  0  0  0  0  0  0  0  0
    1.4289   -0.0000    0.0000 C   0  0  0  0  0  0  0  0  0  0  0  0
    2.1434   -0.4125    0.0000 Cl  0  0  0  0  0  0  0  0  0  0  0  0
    0.7145   -0.4125    0.0000 C   0  0  0  0  0  0  0  0  0  0  0  0
    0.0000   -0.0000    0.0000 C   0  0  0  0  0  0  0  0  0  0  0  0
    0.0000    0.8250    0.0000 C   0  0  0  0  0  0  0  0  0  0  0  0
   -0.7145    1.2375    0.0000 O   0  0  0  0  0  0  0  0  0  0  0  0
  1  2  1  0
  2  3  2  0
  3  4  1  0
  4  5  1  0
  4  6  2  0
  6  7  1  0
  7  8  2  0
  2  8  1  0
  8  9  1  0
M  END
>  <id>  (236) 
1834

>  <casrn>  (236) 
1570-64-5

>  <smiles (First)>  (236) 


>  <Molecular weight>  (236) 
142.5828857421875

>  <name>  (236) 
4-chloro-2-methylphenol

>  <Outcome>  (236) 
1

>  <Molecule (RDKit Mol) (InChI Code)>  (236) 
InChI=1S/C7H7ClO/c1-5-4-6(8)2-3-7(5)9/h2-4,9H,1H3

>  <reference>  (236) 
ECHA

>  <molecule_form>  (236) 
A

>  <ID>  (236) 


>  <SMILES>  (236) 
Cc1cc(Cl)ccc1O

>  <ROMol>  (236) 
<rdkit.Chem.rdchem.Mol object at 0x0000027F585E2BA0>

$$$$

     RDKit          2D

 14 13  0  0  0  0  0  0  0  0999 V2000
    0.8250   -3.3000    0.0000 F   0  0  0  0  0  0  0  0  0  0  0  0
    0.8250   -2.4750    0.0000 C   0  0  0  0  0  0  0  0  0  0  0  0
    1.6500   -2.4750    0.0000 F   0  0  0  0  0  0  0  0  0  0  0  0
    0.0000   -2.4750    0.0000 I   0  0  0  0  0  0  0  0  0  0  0  0
    0.8250   -1.6500    0.0000 C   0  0  0  0  0  0  0  0  0  0  0  0
    1.6500   -1.6500    0.0000 F   0  0  0  0  0  0  0  0  0  0  0  0
    0.0000   -1.6500    0.0000 F   0  0  0  0  0  0  0  0  0  0  0  0
    0.8250   -0.8250    0.0000 C   0  0  0  0  0  0  0  0  0  0  0  0
    1.6500   -0.8250    0.0000 F   0  0  0  0  0  0  0  0  0  0  0  0
    0.0000   -0.8250    0.0000 F   0  0  0  0  0  0  0  0  0  0  0  0
    0.8250    0.0000    0.0000 C   0  0  0  0  0  0  0  0  0  0  0  0
    0.8250    0.8250    0.0000 F   0  0  0  0  0  0  0  0  0  0  0  0
    1.6500    0.0000    0.0000 F   0  0  0  0  0  0  0  0  0  0  0  0
    0.0000    0.0000    0.0000 I   0  0  0  0  0  0  0  0  0  0  0  0
  1  2  1  0
  2  3  1  0
  2  4  1  0
  2  5  1  0
  5  6  1  0
  5  7  1  0
  5  8  1  0
  8  9  1  0
  8 10  1  0
  8 11  1  0
 11 12  1  0
 11 13  1  0
 11 14  1  0
M  END
>  <id>  (237) 
881

>  <casrn>  (237) 
375-50-8

>  <smiles (First)>  (237) 


>  <Molecular weight>  (237) 
453.8389892578125

>  <name>  (237) 
1,1,2,2,3,3,4,4-octafluoro-1,4-diiodobutane

>  <Outcome>  (237) 
0

>  <Molecule (RDKit Mol) (InChI Code)>  (237) 
InChI=1S/C4F8I2/c5-1(6,3(9,10)13)2(7,8)4(11,12)14

>  <reference>  (237) 
ECHA

>  <molecule_form>  (237) 
V

>  <ID>  (237) 


>  <SMILES>  (237) 
FC(F)(I)C(F)(F)C(F)(F)C(F)(F)I

>  <ROMol>  (237) 
<rdkit.Chem.rdchem.Mol object at 0x0000027F58419E40>

$$$$

     RDKit          2D

  5  4  0  0  0  0  0  0  0  0999 V2000
    2.4738   -1.4309    0.0000 C   0  0  0  0  0  0  0  0  0  0  0  0
    2.0613   -0.7164    0.0000 C   0  0  0  0  0  0  0  0  0  0  0  0
    1.2363   -0.7164    0.0000 C   0  0  0  0  0  0  0  0  0  0  0  0
    0.8238   -0.0019    0.0000 C   0  0  0  0  0  0  0  0  0  0  0  0
   -0.0012   -0.0019    0.0000 N   0  0  0  0  0  0  0  0  0  0  0  0
  1  2  1  0
  2  3  1  0
  3  4  1  0
  4  5  1  0
M  END
>  <id>  (238) 
2694

>  <casrn>  (238) 
109-73-9

>  <smiles (First)>  (238) 


>  <Molecular weight>  (238) 
73.1368408203125

>  <name>  (238) 
butan-1-amine

>  <Outcome>  (238) 
1

>  <Molecule (RDKit Mol) (InChI Code)>  (238) 
InChI=1S/C4H11N/c1-2-3-4-5/h2-5H2,1H3

>  <reference>  (238) 
ECHA

>  <molecule_form>  (238) 
V

>  <ID>  (238) 


>  <SMILES>  (238) 
CCCCN

>  <ROMol>  (238) 
<rdkit.Chem.rdchem.Mol object at 0x0000027F624DD580>

$$$$

     RDKit          2D

 11 12  0  0  0  0  0  0  0  0999 V2000
    0.1385    1.0341    0.0000 C   0  0  0  0  0  0  0  0  0  0  0  0
    0.7924    0.1662    0.0000 C   0  0  0  0  0  0  0  0  0  0  0  0
    0.1193   -0.6713    0.0000 C   0  0  0  0  0  0  0  0  0  0  0  0
    0.5861    0.9912    0.0000 C   0  0  0  0  0  0  0  0  0  0  0  0
   -0.1284    0.5787    0.0000 C   0  0  0  0  0  0  0  0  0  0  0  0
   -0.1284   -0.2463    0.0000 C   0  0  0  0  0  0  0  0  0  0  0  0
    0.5861   -0.6588    0.0000 C   0  0  0  0  0  0  0  0  0  0  0  0
    0.6566   -1.5341    0.0000 C   0  0  0  0  0  0  0  0  0  0  0  0
    1.3006   -0.2463    0.0000 C   0  0  0  0  0  0  0  0  0  0  0  0
    2.0546   -0.6584    0.0000 O   0  0  0  0  0  0  0  0  0  0  0  0
    1.3006    0.5787    0.0000 C   0  0  0  0  0  0  0  0  0  0  0  0
  1  2  1  0
  2  3  1  0
  4  2  1  0
  4  5  1  0
  5  6  1  0
  6  7  1  0
  7  8  1  0
  7  9  1  0
  9 10  2  0
  9 11  1  0
  2  7  1  0
 11  4  1  0
M  END
>  <id>  (239) 
937418

>  <casrn>  (239) 
76-22-2

>  <smiles (First)>  (239) 
CC1(C)C2CCC1(C)C(=O)C2

>  <Molecular weight>  (239) 
152.2334442138672

>  <name>  (239) 
Camphor

>  <Outcome>  (239) 
1

>  <Molecule (RDKit Mol) (InChI Code)>  (239) 
InChI=1S/C10H16O/c1-9(2)7-4-5-10(9,3)8(11)6-7/h7H,4-6H2,1-3H3

>  <reference>  (239) 
ToxValDB

>  <molecule_form>  (239) 
not specified

>  <ID>  (239) 


>  <SMILES>  (239) 
CC12CCC(CC1=O)C2(C)C

>  <ROMol>  (239) 
<rdkit.Chem.rdchem.Mol object at 0x0000027F6244FC10>

$$$$

     RDKit          2D

 20 19  0  0  0  0  0  0  0  0999 V2000
    7.8785    5.4408    0.0000 C   0  0  0  0  0  0  0  0  0  0  0  0
    8.5930    5.0283    0.0000 C   0  0  0  0  0  0  0  0  0  0  0  0
    9.3074    5.4408    0.0000 C   0  0  0  0  0  0  0  0  0  0  0  0
   10.0219    5.0283    0.0000 C   0  0  0  0  0  0  0  0  0  0  0  0
   10.7364    5.4408    0.0000 C   0  0  0  0  0  0  0  0  0  0  0  0
   11.4508    5.0283    0.0000 C   0  0  0  0  0  0  0  0  0  0  0  0
   12.1653    5.4408    0.0000 C   0  0  0  0  0  0  0  0  0  0  0  0
   12.8798    5.0283    0.0000 C   0  0  0  0  0  0  0  0  0  0  0  0
   13.5943    5.4408    0.0000 C   0  0  0  0  0  0  0  0  0  0  0  0
   14.3087    5.0283    0.0000 C   0  0  0  0  0  0  0  0  0  0  0  0
   15.0232    5.4408    0.0000 O   0  0  0  0  0  0  0  0  0  0  0  0
   15.7377    5.0283    0.0000 C   0  0  0  0  0  0  0  0  0  0  0  0
   15.7377    4.2033    0.0000 O   0  0  0  0  0  0  0  0  0  0  0  0
   16.4521    5.4408    0.0000 C   0  0  0  0  0  0  0  0  0  0  0  0
   16.4521    6.2658    0.0000 C   0  0  0  0  0  0  0  0  0  0  0  0
   17.1666    6.6783    0.0000 C   0  0  0  0  0  0  0  0  0  0  0  0
   17.1666    5.0283    0.0000 C   0  0  0  0  0  0  0  0  0  0  0  0
   17.8811    5.4408    0.0000 C   0  0  0  0  0  0  0  0  0  0  0  0
   18.5956    5.0283    0.0000 C   0  0  0  0  0  0  0  0  0  0  0  0
   19.3100    5.4408    0.0000 C   0  0  0  0  0  0  0  0  0  0  0  0
  1  2  1  0
  2  3  1  0
  3  4  1  0
  4  5  1  0
  5  6  1  0
  6  7  1  0
  7  8  1  0
  8  9  1  0
  9 10  1  0
 10 11  1  0
 11 12  1  0
 12 13  2  0
 12 14  1  0
 14 15  1  0
 15 16  1  0
 14 17  1  0
 17 18  1  0
 18 19  1  0
 19 20  1  0
M  END
>  <id>  (240) 
2898

>  <casrn>  (240) 
93777-46-9

>  <smiles (First)>  (240) 


>  <Molecular weight>  (240) 
284.47723388671875

>  <name>  (240) 
decyl 2-ethylhexanoate

>  <Outcome>  (240) 
0

>  <Molecule (RDKit Mol) (InChI Code)>  (240) 
InChI=1S/C18H36O2/c1-4-7-9-10-11-12-13-14-16-20-18(19)17(6-3)15-8-5-2/h17H,4-16H2,1-3H3

>  <reference>  (240) 
ECHA

>  <molecule_form>  (240) 
A

>  <ID>  (240) 


>  <SMILES>  (240) 
CCCCCCCCCCOC(=O)C(CC)CCCC

>  <ROMol>  (240) 
<rdkit.Chem.rdchem.Mol object at 0x0000027F583F42E0>

$$$$

     RDKit          2D

  5  4  0  0  0  0  0  0  0  0999 V2000
    0.8250    1.4289    0.0000 C   0  0  0  0  0  0  0  0  0  0  0  0
    1.2375    0.7145    0.0000 C   0  0  0  0  0  0  0  0  0  0  0  0
    0.8250   -0.0000    0.0000 C   0  0  0  0  0  0  0  0  0  0  0  0
    1.2375   -0.7145    0.0000 O   0  0  0  0  0  0  0  0  0  0  0  0
   -0.0000   -0.0000    0.0000 O   0  0  0  0  0  0  0  0  0  0  0  0
  1  2  2  0
  2  3  1  0
  3  4  2  0
  3  5  1  0
M  END
>  <id>  (241) 
3782; 3781

>  <casrn>  (241) 
79-10-7

>  <smiles (First)>  (241) 


>  <Molecular weight>  (241) 
72.06266021728516

>  <name>  (241) 
prop-2-enoic acid

>  <Outcome>  (241) 
1

>  <Molecule (RDKit Mol) (InChI Code)>  (241) 
InChI=1S/C3H4O2/c1-2-3(4)5/h2H,1H2,(H,4,5)

>  <reference>  (241) 
ECHA

>  <molecule_form>  (241) 
V

>  <ID>  (241) 


>  <SMILES>  (241) 
C=CC(=O)O

>  <ROMol>  (241) 
<rdkit.Chem.rdchem.Mol object at 0x0000027F624B1040>

$$$$

     RDKit          2D

  8  8  0  0  0  0  0  0  0  0999 V2000
    1.4805    0.6325    0.0000 C   0  0  0  0  0  0  0  0  0  0  0  0
    0.7661    0.2200    0.0000 C   0  0  0  0  0  0  0  0  0  0  0  0
    0.0516    0.6325    0.0000 C   0  0  0  0  0  0  0  0  0  0  0  0
   -0.6629    0.2200    0.0000 C   0  0  0  0  0  0  0  0  0  0  0  0
   -0.6629   -0.6050    0.0000 C   0  0  0  0  0  0  0  0  0  0  0  0
    0.0516   -1.0175    0.0000 C   0  0  0  0  0  0  0  0  0  0  0  0
    0.7661   -0.6050    0.0000 C   0  0  0  0  0  0  0  0  0  0  0  0
    1.4805   -1.0175    0.0000 Cl  0  0  0  0  0  0  0  0  0  0  0  0
  1  2  1  0
  3  2  2  0
  4  3  1  0
  5  4  2  0
  6  5  1  0
  7  6  2  0
  7  8  1  0
  2  7  1  0
M  END
>  <id>  (242) 
350645

>  <casrn>  (242) 
95-49-8

>  <smiles (First)>  (242) 
Cc1ccccc1Cl

>  <Molecular weight>  (242) 
126.58348083496094

>  <name>  (242) 
2-Chlorotoluene

>  <Outcome>  (242) 
0

>  <Molecule (RDKit Mol) (InChI Code)>  (242) 
InChI=1S/C7H7Cl/c1-6-4-2-3-5-7(6)8/h2-5H,1H3

>  <reference>  (242) 
ToxValDB

>  <molecule_form>  (242) 
not specified

>  <ID>  (242) 


>  <SMILES>  (242) 
Cc1ccccc1Cl

>  <ROMol>  (242) 
<rdkit.Chem.rdchem.Mol object at 0x0000027F585CBF90>

$$$$

     RDKit          2D

  5  4  0  0  0  0  0  0  0  0999 V2000
    2.0605   -0.7179    0.0000 O   0  0  0  0  0  0  0  0  0  0  0  0
    1.2355   -0.7179    0.0000 C   0  0  0  0  0  0  0  0  0  0  0  0
    0.8230   -1.4323    0.0000 O   0  0  0  0  0  0  0  0  0  0  0  0
    0.8230   -0.0034    0.0000 C   0  0  0  0  0  0  0  0  0  0  0  0
   -0.0020   -0.0034    0.0000 O   0  0  0  0  0  0  0  0  0  0  0  0
  1  2  2  0
  2  3  1  0
  2  4  1  0
  4  5  1  0
M  END
>  <id>  (243) 
1484; 1482; 1483

>  <casrn>  (243) 
79-14-1

>  <smiles (First)>  (243) 


>  <Molecular weight>  (243) 
76.05136108398438

>  <name>  (243) 
2-hydroxyacetic acid

>  <Outcome>  (243) 
0

>  <Molecule (RDKit Mol) (InChI Code)>  (243) 
InChI=1S/C2H4O3/c3-1-2(4)5/h3H,1H2,(H,4,5)

>  <reference>  (243) 
ECHA

>  <molecule_form>  (243) 
A

>  <ID>  (243) 


>  <SMILES>  (243) 
O=C(O)CO

>  <ROMol>  (243) 
<rdkit.Chem.rdchem.Mol object at 0x0000027F584DEBA0>

$$$$

     RDKit          2D

  3  2  0  0  0  0  0  0  0  0999 V2000
    1.7205   -1.1975    0.0000 C   0  0  0  0  0  0  0  0  0  0  0  0
    1.3080   -0.4830    0.0000 C   0  0  0  0  0  0  0  0  0  0  0  0
    0.4830   -0.4830    0.0000 O   0  0  0  0  0  0  0  0  0  0  0  0
  1  2  1  0
  2  3  2  0
M  END
>  <id>  (244) 
2563

>  <casrn>  (244) 
75-07-0

>  <smiles (First)>  (244) 


>  <Molecular weight>  (244) 
44.05255889892578

>  <name>  (244) 
acetaldehyde

>  <Outcome>  (244) 
0

>  <Molecule (RDKit Mol) (InChI Code)>  (244) 
InChI=1S/C2H4O/c1-2-3/h2H,1H3

>  <reference>  (244) 
ECHA

>  <molecule_form>  (244) 
V

>  <ID>  (244) 


>  <SMILES>  (244) 
CC=O

>  <ROMol>  (244) 
<rdkit.Chem.rdchem.Mol object at 0x0000027F624DD740>

$$$$

     RDKit          2D

  8  7  0  0  0  0  0  0  0  0999 V2000
    1.9125   -0.5631    0.0000 C   0  0  0  0  0  0  0  0  0  0  0  0
    1.9125    0.2619    0.0000 C   0  0  0  0  0  0  0  0  0  0  0  0
    1.1980    0.6744    0.0000 C   0  0  0  0  0  0  0  0  0  0  0  0
    0.4835    0.2619    0.0000 C   0  0  0  0  0  0  0  0  0  0  0  0
   -0.2309    0.6744    0.0000 C   0  0  0  0  0  0  0  0  0  0  0  0
   -0.9454    1.0869    0.0000 N   0  0  0  0  0  0  0  0  0  0  0  0
    2.6270    0.6744    0.0000 C   0  0  0  0  0  0  0  0  0  0  0  0
    3.3414    1.0869    0.0000 N   0  0  0  0  0  0  0  0  0  0  0  0
  1  2  1  0
  2  3  1  0
  3  4  1  0
  4  5  1  0
  5  6  3  0
  2  7  1  0
  7  8  3  0
M  END
>  <id>  (245) 
263708; 902554

>  <casrn>  (245) 
4553-62-2

>  <smiles (First)>  (245) 
CC(CCC#N)C#N

>  <Molecular weight>  (245) 
108.14112091064453

>  <name>  (245) 
2-Methylpentanedinitrile

>  <Outcome>  (245) 
1

>  <Molecule (RDKit Mol) (InChI Code)>  (245) 
InChI=1S/C6H8N2/c1-6(5-8)3-2-4-7/h6H,2-3H2,1H3

>  <reference>  (245) 
ToxValDB

>  <molecule_form>  (245) 
not specified

>  <ID>  (245) 


>  <SMILES>  (245) 
CC(C#N)CCC#N

>  <ROMol>  (245) 
<rdkit.Chem.rdchem.Mol object at 0x0000027F6244F9E0>

$$$$

     RDKit          2D

 12 11  0  0  0  0  0  0  0  0999 V2000
    1.0461    1.4289    0.0000 C   0  0  0  0  0  0  0  0  0  0  0  0
    1.7605    1.8414    0.0000 N   0  0  0  0  0  0  0  0  0  0  0  0
    1.7605    2.6664    0.0000 C   0  0  0  0  0  0  0  0  0  0  0  0
    2.4750    1.4289    0.0000 C   0  0  0  0  0  0  0  0  0  0  0  0
    2.4750    0.6039    0.0000 S   0  0  0  0  0  0  0  0  0  0  0  0
    3.1895    1.8414    0.0000 S   0  0  0  0  0  0  0  0  0  0  0  0
    3.9040    1.4289    0.0000 S   0  0  0  0  0  0  0  0  0  0  0  0
    4.6184    1.8414    0.0000 C   0  0  0  0  0  0  0  0  0  0  0  0
    4.6184    2.6664    0.0000 S   0  0  0  0  0  0  0  0  0  0  0  0
    5.3329    1.4289    0.0000 N   0  0  0  0  0  0  0  0  0  0  0  0
    6.0474    1.8414    0.0000 C   0  0  0  0  0  0  0  0  0  0  0  0
    5.3329    0.6039    0.0000 C   0  0  0  0  0  0  0  0  0  0  0  0
  1  2  1  0
  2  3  1  0
  2  4  1  0
  4  5  2  0
  4  6  1  0
  6  7  1  0
  7  8  1  0
  8  9  2  0
  8 10  1  0
 10 11  1  0
 10 12  1  0
M  END
>  <id>  (246) 
2560

>  <casrn>  (246) 
137-26-8

>  <smiles (First)>  (246) 


>  <Molecular weight>  (246) 
240.43287658691406

>  <name>  (246) 
[disulfanediylbis(carbonothioylnitrilo)]tetramethane

>  <Outcome>  (246) 
1

>  <Molecule (RDKit Mol) (InChI Code)>  (246) 
InChI=1S/C6H12N2S4/c1-7(2)5(9)11-12-6(10)8(3)4/h1-4H3

>  <reference>  (246) 
ECHA

>  <molecule_form>  (246) 
A

>  <ID>  (246) 


>  <SMILES>  (246) 
CN(C)C(=S)SSC(=S)N(C)C

>  <ROMol>  (246) 
<rdkit.Chem.rdchem.Mol object at 0x0000027F58905BA0>

$$$$

     RDKit          2D

  3  2  0  0  0  0  0  0  0  0999 V2000
    2.2977   -2.0834    0.0000 Cl  0  0  0  0  0  0  0  0  0  0  0  0
    1.8852   -1.3689    0.0000 C   0  0  0  0  0  0  0  0  0  0  0  0
    1.0602   -1.3689    0.0000 Br  0  0  0  0  0  0  0  0  0  0  0  0
  1  2  1  0
  2  3  1  0
M  END
>  <id>  (247) 
2683

>  <casrn>  (247) 
74-97-5

>  <smiles (First)>  (247) 


>  <Molecular weight>  (247) 
129.38357543945312

>  <name>  (247) 
bromo(chloro)methane

>  <Outcome>  (247) 
0

>  <Molecule (RDKit Mol) (InChI Code)>  (247) 
InChI=1S/CH2BrCl/c2-1-3/h1H2

>  <reference>  (247) 
ECHA

>  <molecule_form>  (247) 
V

>  <ID>  (247) 


>  <SMILES>  (247) 
ClCBr

>  <ROMol>  (247) 
<rdkit.Chem.rdchem.Mol object at 0x0000027F624DDAC0>

$$$$

     RDKit          2D

  4  3  0  0  0  0  0  0  0  0999 V2000
    1.2375    0.7145    0.0000 F   0  0  0  0  0  0  0  0  0  0  0  0
    0.8250   -0.0000    0.0000 C   0  0  0  0  0  0  0  0  0  0  0  0
    1.2375   -0.7145    0.0000 F   0  0  0  0  0  0  0  0  0  0  0  0
    0.0000   -0.0000    0.0000 F   0  0  0  0  0  0  0  0  0  0  0  0
  1  2  1  0
  2  3  1  0
  2  4  1  0
M  END
>  <id>  (248) 
4076

>  <casrn>  (248) 
75-46-7

>  <smiles (First)>  (248) 


>  <Molecular weight>  (248) 
70.01384735107422

>  <name>  (248) 
trifluoromethane

>  <Outcome>  (248) 
0

>  <Molecule (RDKit Mol) (InChI Code)>  (248) 
InChI=1S/CHF3/c2-1(3)4/h1H

>  <reference>  (248) 
ECHA

>  <molecule_form>  (248) 
G

>  <ID>  (248) 


>  <SMILES>  (248) 
FC(F)F

>  <ROMol>  (248) 
<rdkit.Chem.rdchem.Mol object at 0x0000027F78E2C430>

$$$$

     RDKit          2D

  4  3  0  0  0  0  0  0  0  0999 V2000
    2.0641   -0.7117    0.0000 C   0  0  0  0  0  0  0  0  0  0  0  0
    1.2391   -0.7117    0.0000 C   0  0  0  0  0  0  0  0  0  0  0  0
    0.8266    0.0028    0.0000 O   0  0  0  0  0  0  0  0  0  0  0  0
    0.0016    0.0028    0.0000 N   0  0  0  0  0  0  0  0  0  0  0  0
  1  2  1  0
  2  3  1  0
  3  4  1  0
M  END
>  <id>  (249) 
2511

>  <casrn>  (249) 
624-86-2

>  <smiles (First)>  (249) 


>  <Molecular weight>  (249) 
61.08308029174805

>  <name>  (249) 
O-ethylhydroxylamine

>  <Outcome>  (249) 
1

>  <Molecule (RDKit Mol) (InChI Code)>  (249) 
InChI=1S/C2H7NO/c1-2-4-3/h2-3H2,1H3

>  <reference>  (249) 
ECHA

>  <molecule_form>  (249) 
A

>  <ID>  (249) 


>  <SMILES>  (249) 
CCON

>  <ROMol>  (249) 
<rdkit.Chem.rdchem.Mol object at 0x0000027F5842F9E0>

$$$$

     RDKit          2D

  8  8  0  0  0  0  0  0  0  0999 V2000
    0.7145    2.0625    0.0000 F   0  0  0  0  0  0  0  0  0  0  0  0
    0.7145    1.2375    0.0000 C   0  0  0  0  0  0  0  0  0  0  0  0
    1.4289    0.8250    0.0000 C   0  0  0  0  0  0  0  0  0  0  0  0
    1.4289   -0.0000    0.0000 C   0  0  0  0  0  0  0  0  0  0  0  0
    0.7145   -0.4125    0.0000 C   0  0  0  0  0  0  0  0  0  0  0  0
    0.7145   -1.2375    0.0000 Br  0  0  0  0  0  0  0  0  0  0  0  0
   -0.0000    0.0000    0.0000 C   0  0  0  0  0  0  0  0  0  0  0  0
   -0.0000    0.8250    0.0000 C   0  0  0  0  0  0  0  0  0  0  0  0
  1  2  1  0
  2  3  2  0
  3  4  1  0
  4  5  2  0
  5  6  1  0
  5  7  1  0
  7  8  2  0
  2  8  1  0
M  END
>  <id>  (250) 
1115

>  <casrn>  (250) 
460-00-4

>  <smiles (First)>  (250) 


>  <Molecular weight>  (250) 
174.9983673095703

>  <name>  (250) 
1-bromo-4-fluorobenzene

>  <Outcome>  (250) 
1

>  <Molecule (RDKit Mol) (InChI Code)>  (250) 
InChI=1S/C6H4BrF/c7-5-1-3-6(8)4-2-5/h1-4H

>  <reference>  (250) 
ECHA

>  <molecule_form>  (250) 
V

>  <ID>  (250) 


>  <SMILES>  (250) 
Fc1ccc(Br)cc1

>  <ROMol>  (250) 
<rdkit.Chem.rdchem.Mol object at 0x0000027F584DEF20>

$$$$

     RDKit          2D

 16 15  0  0  0  0  0  0  0  0999 V2000
    6.6906    4.7057    0.0000 C   0  0  0  0  0  0  0  0  0  0  0  0
    7.4051    4.2932    0.0000 C   0  0  0  0  0  0  0  0  0  0  0  0
    8.1196    4.7057    0.0000 C   0  0  0  0  0  0  0  0  0  0  0  0
    8.8341    4.2932    0.0000 C   0  0  0  0  0  0  0  0  0  0  0  0
    9.5485    4.7057    0.0000 C   0  0  0  0  0  0  0  0  0  0  0  0
   10.2630    4.2932    0.0000 C   0  0  0  0  0  0  0  0  0  0  0  0
   10.9775    4.7057    0.0000 C   0  0  0  0  0  0  0  0  0  0  0  0
   11.6919    4.2932    0.0000 C   0  0  0  0  0  0  0  0  0  0  0  0
   12.4064    4.7057    0.0000 C   0  0  0  0  0  0  0  0  0  0  0  0
   13.1209    4.2932    0.0000 C   0  0  0  0  0  0  0  0  0  0  0  0
   13.8354    4.7057    0.0000 C   0  0  0  0  0  0  0  0  0  0  0  0
   14.5498    4.2932    0.0000 C   0  0  0  0  0  0  0  0  0  0  0  0
   15.2643    4.7057    0.0000 C   0  0  0  0  0  0  0  0  0  0  0  0
   15.9788    4.2932    0.0000 C   0  0  0  0  0  0  0  0  0  0  0  0
   16.6932    4.7057    0.0000 C   0  0  0  0  0  0  0  0  0  0  0  0
   15.9788    3.4682    0.0000 C   0  0  0  0  0  0  0  0  0  0  0  0
  1  2  1  0
  2  3  1  0
  3  4  1  0
  4  5  1  0
  5  6  1  0
  6  7  1  0
  7  8  1  0
  8  9  1  0
  9 10  1  0
 10 11  1  0
 11 12  1  0
 12 13  1  0
 13 14  1  0
 14 15  1  0
 14 16  1  0
M  END
>  <id>  (251) 
308

>  <casrn>  (251) 
93685-80-4

>  <smiles (First)>  (251) 


>  <Molecular weight>  (251) 
226.441162109375

>  <name>  (251) 
-

>  <Outcome>  (251) 
1

>  <Molecule (RDKit Mol) (InChI Code)>  (251) 
InChI=1S/C16H34/c1-4-5-6-7-8-9-10-11-12-13-14-15-16(2)3/h16H,4-15H2,1-3H3

>  <reference>  (251) 
ECHA

>  <molecule_form>  (251) 
A

>  <ID>  (251) 


>  <SMILES>  (251) 
CCCCCCCCCCCCCC(C)C

>  <ROMol>  (251) 
<rdkit.Chem.rdchem.Mol object at 0x0000027F6246B120>

$$$$

     RDKit          2D

 23 25  0  0  0  0  0  0  0  0999 V2000
   -1.8179   -2.0142    0.0000 C   0  0  0  0  0  0  0  0  0  0  0  0
   -1.4054   -1.2997    0.0000 N   0  0  0  0  0  0  0  0  0  0  0  0
   -0.5804   -1.2997    0.0000 N   0  0  0  0  0  0  0  0  0  0  0  0
   -0.1679   -0.5852    0.0000 C   0  0  0  0  0  0  0  0  0  0  0  0
    0.6571   -0.5852    0.0000 C   0  0  0  0  0  0  0  0  0  0  0  0
    1.1420    0.0822    0.0000 N   0  0  0  0  0  0  0  0  0  0  0  0
    0.8870    0.8668    0.0000 C   0  0  0  0  0  0  0  0  0  0  0  0
    1.9266   -0.1727    0.0000 C   0  0  0  0  0  0  0  0  0  0  0  0
    2.6411    0.2398    0.0000 C   0  0  0  0  0  0  0  0  0  0  0  0
    3.3556   -0.1727    0.0000 C   0  0  0  0  0  0  0  0  0  0  0  0
    3.3556   -0.9977    0.0000 C   0  0  0  0  0  0  0  0  0  0  0  0
    2.6411   -1.4102    0.0000 C   0  0  0  0  0  0  0  0  0  0  0  0
    1.9266   -0.9977    0.0000 C   0  0  0  0  0  0  0  0  0  0  0  0
    1.1420   -1.2527    0.0000 C   0  0  0  0  0  0  0  0  0  0  0  0
    1.3051   -2.0614    0.0000 C   0  0  0  0  0  0  0  0  0  0  0  0
    0.5347   -1.8111    0.0000 C   0  0  0  0  0  0  0  0  0  0  0  0
   -1.8179   -0.5852    0.0000 C   0  0  0  0  0  0  0  0  0  0  0  0
   -2.6429   -0.5852    0.0000 C   0  0  0  0  0  0  0  0  0  0  0  0
   -3.0554    0.1292    0.0000 C   0  0  0  0  0  0  0  0  0  0  0  0
   -2.6429    0.8437    0.0000 C   0  0  0  0  0  0  0  0  0  0  0  0
   -3.0554    1.5582    0.0000 C   0  0  0  0  0  0  0  0  0  0  0  0
   -1.8179    0.8437    0.0000 C   0  0  0  0  0  0  0  0  0  0  0  0
   -1.4054    0.1292    0.0000 C   0  0  0  0  0  0  0  0  0  0  0  0
  1  2  2  0
  3  2  1  0
  3  4  2  3
  4  5  1  0
  5  6  1  0
  6  7  1  0
  6  8  1  0
  8  9  2  0
  9 10  1  0
 10 11  2  0
 11 12  1  0
 12 13  2  0
  8 13  1  0
 13 14  1  0
  5 14  1  0
 14 15  1  0
 14 16  1  0
  2 17  1  0
 17 18  2  0
 18 19  1  0
 19 20  2  0
 20 21  1  0
 20 22  1  0
 22 23  2  0
 17 23  1  0
M  CHG  1   2   1
M  END
>  <id>  (252) 
952

>  <casrn>  (252) 
68134-38-3

>  <smiles (First)>  (252) 


>  <Molecular weight>  (252) 
306.4246520996094

>  <name>  (252) 
1,3,3-trimethyl-2-[(1E)-[2-methyl-2-(4-methylphenyl)hydrazin-1-ylidene]methyl]-3H-indol-1-ium chloride

>  <Outcome>  (252) 
1

>  <Molecule (RDKit Mol) (InChI Code)>  (252) 
InChI=1S/C20H24N3/c1-15-10-12-16(13-11-15)23(5)21-14-19-20(2,3)17-8-6-7-9-18(17)22(19)4/h6-14,19H,5H2,1-4H3/q+1

>  <reference>  (252) 
ECHA

>  <molecule_form>  (252) 
A

>  <ID>  (252) 


>  <SMILES>  (252) 
C=[N+](N=CC1N(C)c2ccccc2C1(C)C)c1ccc(C)cc1

>  <ROMol>  (252) 
<rdkit.Chem.rdchem.Mol object at 0x0000027F5846ECF0>

$$$$

     RDKit          2D

 16 17  0  0  0  0  0  0  0  0999 V2000
    2.8566   -4.1258    0.0000 O   0  0  0  0  0  0  0  0  0  0  0  0
    2.1421   -3.7133    0.0000 C   0  0  0  0  0  0  0  0  0  0  0  0
    1.4277   -4.1258    0.0000 O   0  0  0  0  0  0  0  0  0  0  0  0
    2.1421   -2.8883    0.0000 C   0  0  0  0  0  0  0  0  0  0  0  0
    1.4277   -2.4758    0.0000 O   0  0  0  0  0  0  0  0  0  0  0  0
    1.4277   -1.6508    0.0000 C   0  0  0  0  0  0  0  0  0  0  0  0
    0.7132   -1.2383    0.0000 C   0  0  0  0  0  0  0  0  0  0  0  0
    0.7132   -0.4133    0.0000 C   0  0  0  0  0  0  0  0  0  0  0  0
    1.4277   -0.0008    0.0000 C   0  0  0  0  0  0  0  0  0  0  0  0
    1.4277    0.8242    0.0000 Cl  0  0  0  0  0  0  0  0  0  0  0  0
    2.1421   -0.4133    0.0000 C   0  0  0  0  0  0  0  0  0  0  0  0
    2.8566   -0.0008    0.0000 C   0  0  0  0  0  0  0  0  0  0  0  0
    3.5711   -0.4133    0.0000 C   0  0  0  0  0  0  0  0  0  0  0  0
    3.5711   -1.2383    0.0000 C   0  0  0  0  0  0  0  0  0  0  0  0
    2.8566   -1.6508    0.0000 N   0  0  0  0  0  0  0  0  0  0  0  0
    2.1421   -1.2383    0.0000 C   0  0  0  0  0  0  0  0  0  0  0  0
  1  2  2  0
  2  3  1  0
  2  4  1  0
  4  5  1  0
  5  6  1  0
  6  7  2  0
  7  8  1  0
  8  9  2  0
  9 10  1  0
  9 11  1  0
 11 12  2  0
 12 13  1  0
 13 14  2  0
 14 15  1  0
 15 16  2  0
  6 16  1  0
 11 16  1  0
M  END
>  <id>  (253) 
4314

>  <casrn>  (253) 
88349-88-6

>  <smiles (First)>  (253) 


>  <Molecular weight>  (253) 
237.63912963867188

>  <name>  (253) 
unnamed [88349-88-6]

>  <Outcome>  (253) 
0

>  <Molecule (RDKit Mol) (InChI Code)>  (253) 
InChI=1S/C11H8ClNO3/c12-8-3-4-9(16-6-10(14)15)11-7(8)2-1-5-13-11/h1-5H,6H2,(H,14,15)

>  <reference>  (253) 
ECHA

>  <molecule_form>  (253) 
A

>  <ID>  (253) 


>  <SMILES>  (253) 
O=C(O)COc1ccc(Cl)c2cccnc12

>  <ROMol>  (253) 
<rdkit.Chem.rdchem.Mol object at 0x0000027F58428970>

$$$$

     RDKit          2D

  7  7  0  0  0  0  0  0  0  0999 V2000
    0.7239    2.1651    0.0000 S   0  0  0  0  0  0  0  0  0  0  0  0
    0.7239    1.3401    0.0000 C   0  0  0  0  0  0  0  0  0  0  0  0
    1.4383    0.9276    0.0000 C   0  0  0  0  0  0  0  0  0  0  0  0
    1.4383    0.1026    0.0000 C   0  0  0  0  0  0  0  0  0  0  0  0
    0.7239   -0.3099    0.0000 C   0  0  0  0  0  0  0  0  0  0  0  0
    0.0094    0.1026    0.0000 C   0  0  0  0  0  0  0  0  0  0  0  0
    0.0094    0.9276    0.0000 C   0  0  0  0  0  0  0  0  0  0  0  0
  1  2  1  0
  2  3  1  0
  3  4  1  0
  4  5  1  0
  5  6  1  0
  6  7  1  0
  2  7  1  0
M  END
>  <id>  (254) 
2832

>  <casrn>  (254) 
1569-69-3

>  <smiles (First)>  (254) 


>  <Molecular weight>  (254) 
116.22447967529297

>  <name>  (254) 
cyclohexanethiol

>  <Outcome>  (254) 
1

>  <Molecule (RDKit Mol) (InChI Code)>  (254) 
InChI=1S/C6H12S/c7-6-4-2-1-3-5-6/h6-7H,1-5H2

>  <reference>  (254) 
ECHA

>  <molecule_form>  (254) 
V

>  <ID>  (254) 


>  <SMILES>  (254) 
SC1CCCCC1

>  <ROMol>  (254) 
<rdkit.Chem.rdchem.Mol object at 0x0000027F62463580>

$$$$

     RDKit          2D

 12 12  0  0  0  0  0  0  0  0999 V2000
    1.4289    2.4750    0.0000 O   0  0  0  0  0  0  0  0  0  0  0  0
    0.7145    2.0625    0.0000 C   0  0  0  0  0  0  0  0  0  0  0  0
   -0.0000    2.4750    0.0000 O   0  0  0  0  0  0  0  0  0  0  0  0
    0.7145    1.2375    0.0000 C   0  0  0  0  0  0  0  0  0  0  0  0
    1.4289    0.8250    0.0000 C   0  0  0  0  0  0  0  0  0  0  0  0
    1.4289    0.0000    0.0000 C   0  0  0  0  0  0  0  0  0  0  0  0
    0.7145   -0.4125    0.0000 C   0  0  0  0  0  0  0  0  0  0  0  0
   -0.0000    0.0000    0.0000 C   0  0  0  0  0  0  0  0  0  0  0  0
   -0.7145   -0.4125    0.0000 C   0  0  0  0  0  0  0  0  0  0  0  0
   -0.7145   -1.2375    0.0000 O   0  0  0  0  0  0  0  0  0  0  0  0
   -1.4289    0.0000    0.0000 O   0  0  0  0  0  0  0  0  0  0  0  0
   -0.0000    0.8250    0.0000 C   0  0  0  0  0  0  0  0  0  0  0  0
  1  2  2  0
  2  3  1  0
  2  4  1  0
  4  5  2  0
  5  6  1  0
  6  7  2  0
  7  8  1  0
  8  9  1  0
  9 10  2  0
  9 11  1  0
  8 12  2  0
  4 12  1  0
M  END
>  <id>  (255) 
2619; 2620

>  <casrn>  (255) 
121-91-5

>  <smiles (First)>  (255) 


>  <Molecular weight>  (255) 
166.13084411621094

>  <name>  (255) 
benzene-1,3-dicarboxylic acid

>  <Outcome>  (255) 
0

>  <Molecule (RDKit Mol) (InChI Code)>  (255) 
InChI=1S/C8H6O4/c9-7(10)5-2-1-3-6(4-5)8(11)12/h1-4H,(H,9,10)(H,11,12)

>  <reference>  (255) 
ECHA

>  <molecule_form>  (255) 
A

>  <ID>  (255) 


>  <SMILES>  (255) 
O=C(O)c1cccc(C(=O)O)c1

>  <ROMol>  (255) 
<rdkit.Chem.rdchem.Mol object at 0x0000027F5846EE40>

$$$$

     RDKit          2D

  2  1  0  0  0  0  0  0  0  0999 V2000
    0.8250    0.0000    0.0000 C   0  0  0  0  0  0  0  0  0  0  0  0
    0.0000   -0.0000    0.0000 W   0  0  0  0  0  3  0  0  0  0  0  0
  1  2  3  0
M  END
>  <id>  (256) 
4134

>  <casrn>  (256) 
12070-12-1

>  <smiles (First)>  (256) 


>  <Molecular weight>  (256) 
195.85069274902344

>  <name>  (256) 
tungsten(4+) ion methanetetraide

>  <Outcome>  (256) 
0

>  <Molecule (RDKit Mol) (InChI Code)>  (256) 
InChI=1S/CH.W/h1H;

>  <reference>  (256) 
ECHA

>  <molecule_form>  (256) 
A

>  <ID>  (256) 


>  <SMILES>  (256) 
C#[W]

>  <ROMol>  (256) 
<rdkit.Chem.rdchem.Mol object at 0x0000027F5C149900>

$$$$

     RDKit          2D

  4  3  0  0  0  0  0  0  0  0999 V2000
    2.0625   -0.7145    0.0000 C   0  0  0  0  0  0  0  0  0  0  0  0
    1.2375   -0.7145    0.0000 C   0  0  0  0  0  0  0  0  0  0  0  0
    0.8250   -0.0000    0.0000 C   0  0  0  0  0  0  0  0  0  0  0  0
    0.0000   -0.0000    0.0000 Br  0  0  0  0  0  0  0  0  0  0  0  0
  1  2  1  0
  2  3  1  0
  3  4  1  0
M  END
>  <id>  (257) 
1117; 1119; 1120

>  <casrn>  (257) 
106-94-5

>  <smiles (First)>  (257) 


>  <Molecular weight>  (257) 
122.99168395996092

>  <name>  (257) 
1-bromopropane

>  <Outcome>  (257) 
0

>  <Molecule (RDKit Mol) (InChI Code)>  (257) 
InChI=1S/C3H7Br/c1-2-3-4/h2-3H2,1H3

>  <reference>  (257) 
ECHA

>  <molecule_form>  (257) 
V

>  <ID>  (257) 


>  <SMILES>  (257) 
CCCBr

>  <ROMol>  (257) 
<rdkit.Chem.rdchem.Mol object at 0x0000027F58437510>

$$$$

     RDKit          2D

  7  6  0  0  0  0  0  0  0  0999 V2000
    0.1105   -1.2375    0.0000 C   0  0  0  0  0  0  0  0  0  0  0  0
    0.8250   -0.8250    0.0000 C   0  0  0  0  0  0  0  0  0  0  0  0
    1.5395   -1.2375    0.0000 F   0  0  0  0  0  0  0  0  0  0  0  0
    0.8250    0.0000    0.0000 C   0  0  0  0  0  0  0  0  0  0  0  0
    0.8250    0.8250    0.0000 F   0  0  0  0  0  0  0  0  0  0  0  0
    1.6500    0.0000    0.0000 F   0  0  0  0  0  0  0  0  0  0  0  0
   -0.0000    0.0000    0.0000 F   0  0  0  0  0  0  0  0  0  0  0  0
  1  2  2  0
  2  3  1  0
  2  4  1  0
  4  5  1  0
  4  6  1  0
  4  7  1  0
M  END
>  <id>  (258) 
1277

>  <casrn>  (258) 
754-12-1

>  <smiles (First)>  (258) 


>  <Molecular weight>  (258) 
114.04159545898438

>  <name>  (258) 
2,3,3,3-tetrafluoroprop-1-ene

>  <Outcome>  (258) 
0

>  <Molecule (RDKit Mol) (InChI Code)>  (258) 
InChI=1S/C3H2F4/c1-2(4)3(5,6)7/h1H2

>  <reference>  (258) 
ECHA

>  <molecule_form>  (258) 
G

>  <ID>  (258) 


>  <SMILES>  (258) 
C=C(F)C(F)(F)F

>  <ROMol>  (258) 
<rdkit.Chem.rdchem.Mol object at 0x0000027F5843A270>

$$$$

     RDKit          2D

  6  5  0  0  0  0  0  0  0  0999 V2000
    1.2375    2.1434    0.0000 C   0  0  0  0  0  0  0  0  0  0  0  0
    0.8250    1.4289    0.0000 C   0  0  0  0  0  0  0  0  0  0  0  0
    1.2375    0.7145    0.0000 O   0  0  0  0  0  0  0  0  0  0  0  0
    0.8250   -0.0000    0.0000 C   0  0  0  0  0  0  0  0  0  0  0  0
    1.2375   -0.7145    0.0000 C   0  0  0  0  0  0  0  0  0  0  0  0
   -0.0000   -0.0000    0.0000 O   0  0  0  0  0  0  0  0  0  0  0  0
  1  2  2  0
  2  3  1  0
  3  4  1  0
  4  5  1  0
  4  6  2  0
M  END
>  <id>  (259) 
3136

>  <casrn>  (259) 
108-05-4

>  <smiles (First)>  (259) 


>  <Molecular weight>  (259) 
86.08924102783203

>  <name>  (259) 
ethenyl acetate

>  <Outcome>  (259) 
1

>  <Molecule (RDKit Mol) (InChI Code)>  (259) 
InChI=1S/C4H6O2/c1-3-6-4(2)5/h3H,1H2,2H3

>  <reference>  (259) 
ECHA

>  <molecule_form>  (259) 
V

>  <ID>  (259) 


>  <SMILES>  (259) 
C=COC(C)=O

>  <ROMol>  (259) 
<rdkit.Chem.rdchem.Mol object at 0x0000027F78E2C660>

$$$$

     RDKit          2D

 11 10  0  0  0  0  0  0  0  0999 V2000
    4.9500   -2.8579    0.0000 C   0  0  0  0  0  0  0  0  0  0  0  0
    4.1250   -2.8579    0.0000 C   0  0  0  0  0  0  0  0  0  0  0  0
    3.7125   -2.1434    0.0000 C   0  0  0  0  0  0  0  0  0  0  0  0
    2.8875   -2.1434    0.0000 C   0  0  0  0  0  0  0  0  0  0  0  0
    2.4750   -1.4289    0.0000 Sn  0  0  0  0  0  4  0  0  0  0  0  0
    3.1895   -1.0164    0.0000 Cl  0  0  0  0  0  0  0  0  0  0  0  0
    1.7605   -1.8414    0.0000 Cl  0  0  0  0  0  0  0  0  0  0  0  0
    2.0625   -0.7145    0.0000 C   0  0  0  0  0  0  0  0  0  0  0  0
    1.2375   -0.7145    0.0000 C   0  0  0  0  0  0  0  0  0  0  0  0
    0.8250   -0.0000    0.0000 C   0  0  0  0  0  0  0  0  0  0  0  0
   -0.0000   -0.0000    0.0000 C   0  0  0  0  0  0  0  0  0  0  0  0
  1  2  1  0
  2  3  1  0
  3  4  1  0
  4  5  1  0
  5  6  1  0
  5  7  1  0
  5  8  1  0
  8  9  1  0
  9 10  1  0
 10 11  1  0
M  END
>  <id>  (260) 
2924

>  <casrn>  (260) 
683-18-1

>  <smiles (First)>  (260) 


>  <Molecular weight>  (260) 
303.8445129394531

>  <name>  (260) 
dibutylstannanebis(ylium) dichloride

>  <Outcome>  (260) 
1

>  <Molecule (RDKit Mol) (InChI Code)>  (260) 
InChI=1S/2C4H9.2ClH.Sn/c2*1-3-4-2;;;/h2*1,3-4H2,2H3;2*1H;/q;;;;+2/p-2

>  <reference>  (260) 
ECHA

>  <molecule_form>  (260) 
A

>  <ID>  (260) 


>  <SMILES>  (260) 
CCCC[Sn](Cl)(Cl)CCCC

>  <ROMol>  (260) 
<rdkit.Chem.rdchem.Mol object at 0x0000027F5C149510>

$$$$

     RDKit          2D

  5  4  0  0  0  0  0  0  0  0999 V2000
    1.2567   -0.1548    0.0000 C   0  0  0  0  0  0  0  0  0  0  0  0
    0.4317   -0.1548    0.0000 C   0  0  0  0  0  0  0  0  0  0  0  0
    0.0192   -0.8693    0.0000 Cl  0  0  0  0  0  0  0  0  0  0  0  0
    0.0192    0.5597    0.0000 C   0  0  0  0  0  0  0  0  0  0  0  0
   -0.8058    0.5597    0.0000 Cl  0  0  0  0  0  0  0  0  0  0  0  0
  1  2  1  0
  2  3  1  0
  2  4  1  0
  4  5  1  0
M  END
>  <id>  (261) 
326504

>  <casrn>  (261) 
78-87-5

>  <smiles (First)>  (261) 
CC(Cl)CCl

>  <Molecular weight>  (261) 
112.9857406616211

>  <name>  (261) 
1,2-Dichloropropane

>  <Outcome>  (261) 
1

>  <Molecule (RDKit Mol) (InChI Code)>  (261) 
InChI=1S/C3H6Cl2/c1-3(5)2-4/h3H,2H2,1H3

>  <reference>  (261) 
ToxValDB

>  <molecule_form>  (261) 
not specified

>  <ID>  (261) 


>  <SMILES>  (261) 
CC(Cl)CCl

>  <ROMol>  (261) 
<rdkit.Chem.rdchem.Mol object at 0x0000027F585CBB30>

$$$$

     RDKit          2D

 13 13  0  0  0  0  0  0  0  0999 V2000
    0.7145    2.0625    0.0000 N   0  0  0  0  0  0  0  0  0  0  0  0
    0.7145    1.2375    0.0000 C   0  0  0  0  0  0  0  0  0  0  0  0
    1.4289    0.8250    0.0000 C   0  0  0  0  0  0  0  0  0  0  0  0
    2.1434    1.2375    0.0000 Cl  0  0  0  0  0  0  0  0  0  0  0  0
    1.4289    0.0000    0.0000 C   0  0  0  0  0  0  0  0  0  0  0  0
    0.7145   -0.4125    0.0000 C   0  0  0  0  0  0  0  0  0  0  0  0
    0.7145   -1.2375    0.0000 C   0  0  0  0  0  0  0  0  0  0  0  0
    0.7145   -2.0625    0.0000 F   0  0  0  0  0  0  0  0  0  0  0  0
   -0.1105   -1.2375    0.0000 F   0  0  0  0  0  0  0  0  0  0  0  0
    1.5395   -1.2375    0.0000 F   0  0  0  0  0  0  0  0  0  0  0  0
    0.0000    0.0000    0.0000 C   0  0  0  0  0  0  0  0  0  0  0  0
    0.0000    0.8250    0.0000 C   0  0  0  0  0  0  0  0  0  0  0  0
   -0.7145    1.2375    0.0000 Cl  0  0  0  0  0  0  0  0  0  0  0  0
  1  2  1  0
  2  3  2  0
  3  4  1  0
  3  5  1  0
  5  6  2  0
  6  7  1  0
  7  8  1  0
  7  9  1  0
  7 10  1  0
  6 11  1  0
 11 12  2  0
  2 12  1  0
 12 13  1  0
M  END
>  <id>  (262) 
1307

>  <casrn>  (262) 
24279-39-8

>  <smiles (First)>  (262) 


>  <Molecular weight>  (262) 
230.0145721435547

>  <name>  (262) 
2,6-dichloro-4-(trifluoromethyl)aniline

>  <Outcome>  (262) 
1

>  <Molecule (RDKit Mol) (InChI Code)>  (262) 
InChI=1S/C7H4Cl2F3N/c8-4-1-3(7(10,11)12)2-5(9)6(4)13/h1-2H,13H2

>  <reference>  (262) 
ECHA

>  <molecule_form>  (262) 
A

>  <ID>  (262) 


>  <SMILES>  (262) 
Nc1c(Cl)cc(C(F)(F)F)cc1Cl

>  <ROMol>  (262) 
<rdkit.Chem.rdchem.Mol object at 0x0000027F58428900>

$$$$

     RDKit          2D

  6  6  0  0  0  0  0  0  0  0999 V2000
   -0.3006    2.9926    0.0000 C   0  0  0  0  0  0  0  0  0  0  0  0
   -0.3006    2.1676    0.0000 C   0  0  0  0  0  0  0  0  0  0  0  0
    0.4139    1.7551    0.0000 C   0  0  0  0  0  0  0  0  0  0  0  0
    0.4139    0.9301    0.0000 C   0  0  0  0  0  0  0  0  0  0  0  0
    0.8264    0.2156    0.0000 C   0  0  0  0  0  0  0  0  0  0  0  0
    0.0014    0.2156    0.0000 O   0  0  0  0  0  0  0  0  0  0  0  0
  1  2  1  0
  2  3  1  0
  3  4  1  0
  4  5  1  0
  5  6  1  0
  4  6  1  0
M  END
>  <id>  (263) 
1700

>  <casrn>  (263) 
1003-14-1

>  <smiles (First)>  (263) 


>  <Molecular weight>  (263) 
86.1323013305664

>  <name>  (263) 
2-propyloxirane

>  <Outcome>  (263) 
1

>  <Molecule (RDKit Mol) (InChI Code)>  (263) 
InChI=1S/C5H10O/c1-2-3-5-4-6-5/h5H,2-4H2,1H3

>  <reference>  (263) 
ECHA

>  <molecule_form>  (263) 
V

>  <ID>  (263) 


>  <SMILES>  (263) 
CCCC1CO1

>  <ROMol>  (263) 
<rdkit.Chem.rdchem.Mol object at 0x0000027F6246BB30>

$$$$

     RDKit          2D

 15 14  0  0  0  0  0  0  0  0999 V2000
    4.7586    3.5734    0.0000 C   0  0  0  0  0  0  0  0  0  0  0  0
    5.4730    3.9859    0.0000 C   0  0  0  0  0  0  0  0  0  0  0  0
    6.1875    3.5734    0.0000 C   0  0  0  0  0  0  0  0  0  0  0  0
    6.9020    3.9859    0.0000 C   0  0  0  0  0  0  0  0  0  0  0  0
    7.6164    3.5734    0.0000 C   0  0  0  0  0  0  0  0  0  0  0  0
    8.3309    3.9859    0.0000 C   0  0  0  0  0  0  0  0  0  0  0  0
    9.0454    3.5734    0.0000 C   0  0  0  0  0  0  0  0  0  0  0  0
    9.7599    3.9859    0.0000 C   0  0  0  0  0  0  0  0  0  0  0  0
   10.4743    3.5734    0.0000 C   0  0  0  0  0  0  0  0  0  0  0  0
   11.1888    3.9859    0.0000 C   0  0  0  0  0  0  0  0  0  0  0  0
   11.9033    3.5734    0.0000 C   0  0  0  0  0  0  0  0  0  0  0  0
   11.9033    2.7484    0.0000 O   0  0  0  0  0  0  0  0  0  0  0  0
   12.6177    3.9859    0.0000 O   0  0  0  0  0  0  0  0  0  0  0  0
   13.3322    3.5734    0.0000 C   0  0  0  0  0  0  0  0  0  0  0  0
   14.0467    3.9859    0.0000 C   0  0  0  0  0  0  0  0  0  0  0  0
  1  2  2  0
  2  3  1  0
  3  4  1  0
  4  5  1  0
  5  6  1  0
  6  7  1  0
  7  8  1  0
  8  9  1  0
  9 10  1  0
 10 11  1  0
 11 12  2  0
 11 13  1  0
 13 14  1  0
 14 15  1  0
M  END
>  <id>  (264) 
3167

>  <casrn>  (264) 
692-86-4

>  <smiles (First)>  (264) 


>  <Molecular weight>  (264) 
212.32846069335938

>  <name>  (264) 
ethyl undec-10-enoate

>  <Outcome>  (264) 
0

>  <Molecule (RDKit Mol) (InChI Code)>  (264) 
InChI=1S/C13H24O2/c1-3-5-6-7-8-9-10-11-12-13(14)15-4-2/h3H,1,4-12H2,2H3

>  <reference>  (264) 
ECHA

>  <molecule_form>  (264) 
A

>  <ID>  (264) 


>  <SMILES>  (264) 
C=CCCCCCCCCC(=O)OCC

>  <ROMol>  (264) 
<rdkit.Chem.rdchem.Mol object at 0x0000027F584370B0>

$$$$

     RDKit          2D

  7  6  0  0  0  0  0  0  0  0999 V2000
    1.7605    1.8390    0.0000 O   0  0  0  0  0  0  0  0  0  0  0  0
    2.4750    1.4265    0.0000 C   0  0  0  0  0  0  0  0  0  0  0  0
    3.1895    1.8390    0.0000 C   0  0  0  0  0  0  0  0  0  0  0  0
    3.9039    1.4265    0.0000 C   0  0  0  0  0  0  0  0  0  0  0  0
    4.6184    1.8390    0.0000 C   0  0  0  0  0  0  0  0  0  0  0  0
    5.3329    1.4265    0.0000 C   0  0  0  0  0  0  0  0  0  0  0  0
    6.0474    1.8390    0.0000 O   0  0  0  0  0  0  0  0  0  0  0  0
  1  2  2  0
  2  3  1  0
  3  4  1  0
  4  5  1  0
  5  6  1  0
  6  7  2  0
M  END
>  <id>  (265) 
3704; 3712; 3709

>  <casrn>  (265) 
111-30-8

>  <smiles (First)>  (265) 


>  <Molecular weight>  (265) 
100.1158218383789

>  <name>  (265) 
pentanedial

>  <Outcome>  (265) 
1

>  <Molecule (RDKit Mol) (InChI Code)>  (265) 
InChI=1S/C5H8O2/c6-4-2-1-3-5-7/h4-5H,1-3H2

>  <reference>  (265) 
ECHA

>  <molecule_form>  (265) 
A

>  <ID>  (265) 


>  <SMILES>  (265) 
O=CCCCC=O

>  <ROMol>  (265) 
<rdkit.Chem.rdchem.Mol object at 0x0000027F58905F20>

$$$$

     RDKit          2D

  8  7  0  0  0  0  0  0  0  0999 V2000
    1.6279   -1.8058    0.0000 C   0  0  0  0  0  0  0  0  0  0  0  0
    2.3424   -1.3933    0.0000 S   0  0  0  0  0  0  0  0  0  0  0  0
    3.0569   -1.8058    0.0000 C   0  0  0  0  0  0  0  0  0  0  0  0
    3.7713   -1.3933    0.0000 C   0  0  0  0  0  0  0  0  0  0  0  0
    4.4858   -1.8058    0.0000 C   0  0  0  0  0  0  0  0  0  0  0  0
    4.4858   -2.6308    0.0000 O   0  0  0  0  0  0  0  0  0  0  0  0
    5.2003   -1.3933    0.0000 C   0  0  0  0  0  0  0  0  0  0  0  0
    5.9148   -0.9808    0.0000 N   0  0  0  0  0  0  0  0  0  0  0  0
  1  2  1  0
  2  3  1  0
  3  4  1  0
  4  5  1  0
  5  6  1  0
  5  7  1  0
  7  8  3  0
M  END
>  <id>  (266) 
1480

>  <casrn>  (266) 
17773-41-0

>  <smiles (First)>  (266) 


>  <Molecular weight>  (266) 
131.19606018066406

>  <name>  (266) 
2-hydroxy-4-(methylsulfanyl)butanenitrile

>  <Outcome>  (266) 
1

>  <Molecule (RDKit Mol) (InChI Code)>  (266) 
InChI=1S/C5H9NOS/c1-8-3-2-5(7)4-6/h5,7H,2-3H2,1H3

>  <reference>  (266) 
ECHA

>  <molecule_form>  (266) 
V

>  <ID>  (266) 


>  <SMILES>  (266) 
CSCCC(O)C#N

>  <ROMol>  (266) 
<rdkit.Chem.rdchem.Mol object at 0x0000027F584D5120>

$$$$

     RDKit          2D

  6  5  0  0  0  0  0  0  0  0999 V2000
    1.7690   -1.6112    0.0000 C   0  0  0  0  0  0  0  0  0  0  0  0
    1.3565   -0.8967    0.0000 C   0  0  0  0  0  0  0  0  0  0  0  0
    2.0710   -0.4842    0.0000 C   0  0  0  0  0  0  0  0  0  0  0  0
    0.6421   -1.3092    0.0000 C   0  0  0  0  0  0  0  0  0  0  0  0
    0.9440   -0.1823    0.0000 O   0  0  0  0  0  0  0  0  0  0  0  0
    0.1190   -0.1823    0.0000 O   0  0  0  0  0  0  0  0  0  0  0  0
  1  2  1  0
  2  3  1  0
  2  4  1  0
  2  5  1  0
  5  6  1  0
M  END
>  <id>  (267) 
3921

>  <casrn>  (267) 
75-91-2

>  <smiles (First)>  (267) 


>  <Molecular weight>  (267) 
90.12100219726562

>  <name>  (267) 
tert-butyl hydroperoxide

>  <Outcome>  (267) 
1

>  <Molecule (RDKit Mol) (InChI Code)>  (267) 
InChI=1S/C4H10O2/c1-4(2,3)6-5/h5H,1-3H3

>  <reference>  (267) 
ECHA

>  <molecule_form>  (267) 
A

>  <ID>  (267) 


>  <SMILES>  (267) 
CC(C)(C)OO

>  <ROMol>  (267) 
<rdkit.Chem.rdchem.Mol object at 0x0000027F6246B4A0>

$$$$

     RDKit          2D

 22 22  0  0  0  0  0  0  0  0999 V2000
    3.5389   -7.8975    0.0000 C   0  0  0  0  0  0  0  0  0  0  0  0
    4.2533   -7.4850    0.0000 C   0  0  0  0  0  0  0  0  0  0  0  0
    4.9678   -7.8975    0.0000 C   0  0  0  0  0  0  0  0  0  0  0  0
    5.6823   -7.4850    0.0000 C   0  0  0  0  0  0  0  0  0  0  0  0
    6.3967   -7.8975    0.0000 C   0  0  0  0  0  0  0  0  0  0  0  0
    7.1112   -7.4850    0.0000 C   0  0  0  0  0  0  0  0  0  0  0  0
    7.8257   -7.8975    0.0000 C   0  0  0  0  0  0  0  0  0  0  0  0
    8.5401   -7.4850    0.0000 C   0  0  0  0  0  0  0  0  0  0  0  0
    9.2546   -7.8975    0.0000 C   0  0  0  0  0  0  0  0  0  0  0  0
    9.9691   -7.4850    0.0000 C   0  0  0  0  0  0  0  0  0  0  0  0
   10.6836   -7.8975    0.0000 C   0  0  0  0  0  0  0  0  0  0  0  0
   11.3980   -7.4850    0.0000 C   0  0  0  0  0  0  0  0  0  0  0  0
   12.1125   -7.8975    0.0000 C   0  0  0  0  0  0  0  0  0  0  0  0
   12.8270   -7.4850    0.0000 C   0  0  0  0  0  0  0  0  0  0  0  0
   13.5414   -7.8975    0.0000 C   0  0  0  0  0  0  0  0  0  0  0  0
   13.5414   -8.7225    0.0000 C   0  0  0  0  0  0  0  0  0  0  0  0
   12.8270   -9.1350    0.0000 C   0  0  0  0  0  0  0  0  0  0  0  0
   12.1125   -8.7225    0.0000 C   0  0  0  0  0  0  0  0  0  0  0  0
   11.3980   -9.1350    0.0000 S   0  0  0  0  0  0  0  0  0  0  0  0
   10.6836   -9.5475    0.0000 O   0  0  0  0  0  0  0  0  0  0  0  0
   10.9855   -8.4206    0.0000 O   0  0  0  0  0  0  0  0  0  0  0  0
   11.8105   -9.8495    0.0000 O   0  0  0  0  0  0  0  0  0  0  0  0
  1  2  1  0
  2  3  1  0
  3  4  1  0
  4  5  1  0
  5  6  1  0
  6  7  1  0
  7  8  1  0
  8  9  1  0
  9 10  1  0
 10 11  1  0
 11 12  1  0
 12 13  1  0
 13 14  2  0
 14 15  1  0
 15 16  2  0
 16 17  1  0
 17 18  2  0
 13 18  1  0
 18 19  1  0
 19 20  2  0
 19 21  2  0
 19 22  1  0
M  END
>  <id>  (268) 
2763

>  <casrn>  (268) 
26264-06-2

>  <smiles (First)>  (268) 


>  <Molecular weight>  (268) 
325.4860534667969

>  <name>  (268) 
calcium dodecylbenzenesulphonate

>  <Outcome>  (268) 
1

>  <Molecule (RDKit Mol) (InChI Code)>  (268) 
InChI=1S/C18H30O3S/c1-2-3-4-5-6-7-8-9-10-11-14-17-15-12-13-16-18(17)22(19,20)21/h12-13,15-16H,2-11,14H2,1H3,(H,19,20,21)

>  <reference>  (268) 
ECHA

>  <molecule_form>  (268) 
A

>  <ID>  (268) 


>  <SMILES>  (268) 
CCCCCCCCCCCCc1ccccc1S(=O)(=O)O

>  <ROMol>  (268) 
<rdkit.Chem.rdchem.Mol object at 0x0000027F5C144740>

$$$$

     RDKit          2D

 12 11  0  0  0  0  0  0  0  0999 V2000
    2.4750   -0.8250    0.0000 N   0  0  0  0  0  0  0  0  0  0  0  0
    1.6500   -0.8250    0.0000 C   0  0  0  0  0  0  0  0  0  0  0  0
    0.8250   -0.8250    0.0000 C   0  0  0  0  0  0  0  0  0  0  0  0
    0.0000   -0.8250    0.0000 F   0  0  0  0  0  0  0  0  0  0  0  0
    0.8250   -1.6500    0.0000 C   0  0  0  0  0  0  0  0  0  0  0  0
    0.8250   -2.4750    0.0000 F   0  0  0  0  0  0  0  0  0  0  0  0
    0.0000   -1.6500    0.0000 F   0  0  0  0  0  0  0  0  0  0  0  0
    1.6500   -1.6500    0.0000 F   0  0  0  0  0  0  0  0  0  0  0  0
    0.8250   -0.0000    0.0000 C   0  0  0  0  0  0  0  0  0  0  0  0
    0.8250    0.8250    0.0000 F   0  0  0  0  0  0  0  0  0  0  0  0
    1.6500   -0.0000    0.0000 F   0  0  0  0  0  0  0  0  0  0  0  0
    0.0000   -0.0000    0.0000 F   0  0  0  0  0  0  0  0  0  0  0  0
  1  2  3  0
  2  3  1  0
  3  4  1  0
  3  5  1  0
  5  6  1  0
  5  7  1  0
  5  8  1  0
  3  9  1  0
  9 10  1  0
  9 11  1  0
  9 12  1  0
M  END
>  <id>  (269) 
731

>  <casrn>  (269) 
42532-60-5

>  <smiles (First)>  (269) 


>  <Molecular weight>  (269) 
195.038330078125

>  <name>  (269) 
-

>  <Outcome>  (269) 
0

>  <Molecule (RDKit Mol) (InChI Code)>  (269) 
InChI=1S/C4F7N/c5-2(1-12,3(6,7)8)4(9,10)11

>  <reference>  (269) 
ECHA

>  <molecule_form>  (269) 
G

>  <ID>  (269) 


>  <SMILES>  (269) 
N#CC(F)(C(F)(F)F)C(F)(F)F

>  <ROMol>  (269) 
<rdkit.Chem.rdchem.Mol object at 0x0000027F584DEC10>

$$$$

     RDKit          2D

 18 19  0  0  0  0  0  0  0  0999 V2000
    1.4213   -0.0234    0.0000 C   0  0  0  0  0  0  0  0  0  0  0  0
    2.1358   -0.4359    0.0000 C   0  0  0  0  0  0  0  0  0  0  0  0
    2.8503   -0.0234    0.0000 O   0  0  0  0  0  0  0  0  0  0  0  0
    2.1358   -1.2609    0.0000 C   0  0  0  0  0  0  0  0  0  0  0  0
    2.8503   -1.6734    0.0000 C   0  0  0  0  0  0  0  0  0  0  0  0
    2.8503   -2.4984    0.0000 C   0  0  0  0  0  0  0  0  0  0  0  0
    2.1358   -2.9109    0.0000 C   0  0  0  0  0  0  0  0  0  0  0  0
    2.1358   -3.7359    0.0000 O   0  0  0  0  0  0  0  0  0  0  0  0
    1.4213   -4.1484    0.0000 C   0  0  0  0  0  0  0  0  0  0  0  0
    1.4213   -4.9734    0.0000 C   0  0  0  0  0  0  0  0  0  0  0  0
    0.7069   -5.3859    0.0000 C   0  0  0  0  0  0  0  0  0  0  0  0
   -0.0076   -4.9734    0.0000 C   0  0  0  0  0  0  0  0  0  0  0  0
   -0.7221   -5.3859    0.0000 Cl  0  0  0  0  0  0  0  0  0  0  0  0
   -0.0076   -4.1484    0.0000 C   0  0  0  0  0  0  0  0  0  0  0  0
    0.7069   -3.7359    0.0000 C   0  0  0  0  0  0  0  0  0  0  0  0
    1.4213   -2.4984    0.0000 C   0  0  0  0  0  0  0  0  0  0  0  0
    1.4213   -1.6734    0.0000 C   0  0  0  0  0  0  0  0  0  0  0  0
    0.7069   -1.2609    0.0000 Cl  0  0  0  0  0  0  0  0  0  0  0  0
  1  2  1  0
  2  3  2  0
  2  4  1  0
  4  5  2  0
  5  6  1  0
  6  7  2  0
  7  8  1  0
  8  9  1  0
  9 10  2  0
 10 11  1  0
 11 12  2  0
 12 13  1  0
 12 14  1  0
 14 15  2  0
  9 15  1  0
  7 16  1  0
 16 17  2  0
  4 17  1  0
 17 18  1  0
M  END
>  <id>  (270) 
412

>  <casrn>  (270) 
119851-28-4

>  <smiles (First)>  (270) 


>  <Molecular weight>  (270) 
281.1340026855469

>  <name>  (270) 
-

>  <Outcome>  (270) 
0

>  <Molecule (RDKit Mol) (InChI Code)>  (270) 
InChI=1S/C14H10Cl2O2/c1-9(17)13-7-6-12(8-14(13)16)18-11-4-2-10(15)3-5-11/h2-8H,1H3

>  <reference>  (270) 
ECHA

>  <molecule_form>  (270) 
A

>  <ID>  (270) 


>  <SMILES>  (270) 
CC(=O)c1ccc(Oc2ccc(Cl)cc2)cc1Cl

>  <ROMol>  (270) 
<rdkit.Chem.rdchem.Mol object at 0x0000027F5842F040>

$$$$

     RDKit          2D

  6  5  0  0  0  0  0  0  0  0999 V2000
    1.2375    0.7145    0.0000 F   0  0  0  0  0  0  0  0  0  0  0  0
    0.8250   -0.0000    0.0000 C   0  0  0  0  0  0  0  0  0  0  0  0
    1.2375   -0.7145    0.0000 F   0  0  0  0  0  0  0  0  0  0  0  0
    0.0000   -0.0000    0.0000 C   0  0  0  0  0  0  0  0  0  0  0  0
   -0.4125   -0.7145    0.0000 F   0  0  0  0  0  0  0  0  0  0  0  0
   -0.4125    0.7145    0.0000 Cl  0  0  0  0  0  0  0  0  0  0  0  0
  1  2  1  0
  2  3  1  0
  2  4  2  0
  4  5  1  0
  4  6  1  0
M  END
>  <id>  (271) 
1125

>  <casrn>  (271) 
79-38-9

>  <smiles (First)>  (271) 


>  <Molecular weight>  (271) 
116.46961212158203

>  <name>  (271) 
1-chloro-1,2,2-trifluoroethene

>  <Outcome>  (271) 
1

>  <Molecule (RDKit Mol) (InChI Code)>  (271) 
InChI=1S/C2ClF3/c3-1(4)2(5)6

>  <reference>  (271) 
ECHA

>  <molecule_form>  (271) 
G

>  <ID>  (271) 


>  <SMILES>  (271) 
FC(F)=C(F)Cl

>  <ROMol>  (271) 
<rdkit.Chem.rdchem.Mol object at 0x0000027F5C144040>

$$$$

     RDKit          2D

 10 10  0  0  0  0  0  0  0  0999 V2000
    1.5021    1.9494    0.0000 F   0  0  0  0  0  0  0  0  0  0  0  0
    0.8701    1.4191    0.0000 C   0  0  0  0  0  0  0  0  0  0  0  0
    0.3398    2.0511    0.0000 F   0  0  0  0  0  0  0  0  0  0  0  0
    1.4004    0.7871    0.0000 F   0  0  0  0  0  0  0  0  0  0  0  0
    0.2382    0.8888    0.0000 C   0  0  0  0  0  0  0  0  0  0  0  0
   -0.3938    1.4191    0.0000 F   0  0  0  0  0  0  0  0  0  0  0  0
    0.6507    0.1743    0.0000 O   0  0  0  0  0  0  0  0  0  0  0  0
   -0.1743    0.1743    0.0000 C   0  0  0  0  0  0  0  0  0  0  0  0
   -0.5230   -0.5734    0.0000 F   0  0  0  0  0  0  0  0  0  0  0  0
   -0.9962    0.2462    0.0000 F   0  0  0  0  0  0  0  0  0  0  0  0
  1  2  1  0
  2  3  1  0
  2  4  1  0
  2  5  1  0
  5  6  1  0
  5  7  1  0
  7  8  1  0
  5  8  1  0
  8  9  1  0
  8 10  1  0
M  END
>  <id>  (272) 
1243

>  <casrn>  (272) 
428-59-1

>  <smiles (First)>  (272) 


>  <Molecular weight>  (272) 
166.0219268798828

>  <name>  (272) 
2,2,3-trifluoro-3-(trifluoromethyl)oxirane

>  <Outcome>  (272) 
1

>  <Molecule (RDKit Mol) (InChI Code)>  (272) 
InChI=1S/C3F6O/c4-1(2(5,6)7)3(8,9)10-1

>  <reference>  (272) 
ECHA

>  <molecule_form>  (272) 
G

>  <ID>  (272) 


>  <SMILES>  (272) 
FC(F)(F)C1(F)OC1(F)F

>  <ROMol>  (272) 
<rdkit.Chem.rdchem.Mol object at 0x0000027F583F4DD0>

$$$$

     RDKit          2D

  7  6  0  0  0  0  0  0  0  0999 V2000
    3.3012   -1.4270    0.0000 C   0  0  0  0  0  0  0  0  0  0  0  0
    2.4762   -1.4270    0.0000 C   0  0  0  0  0  0  0  0  0  0  0  0
    2.0637   -0.7126    0.0000 C   0  0  0  0  0  0  0  0  0  0  0  0
    1.2387   -0.7126    0.0000 C   0  0  0  0  0  0  0  0  0  0  0  0
    0.8262    0.0019    0.0000 N   0  0  0  0  0  0  0  0  0  0  0  0
    0.0012    0.0019    0.0000 C   0  0  0  0  0  0  0  0  0  0  0  0
   -0.8238    0.0019    0.0000 O   0  0  0  0  0  0  0  0  0  0  0  0
  1  2  1  0
  2  3  1  0
  3  4  1  0
  4  5  1  0
  5  6  2  0
  6  7  2  0
M  END
>  <id>  (273) 
1181; 1183; 1180; 1184

>  <casrn>  (273) 
111-36-4

>  <smiles (First)>  (273) 


>  <Molecular weight>  (273) 
99.13105773925781

>  <name>  (273) 
1-isocyanatobutane

>  <Outcome>  (273) 
1

>  <Molecule (RDKit Mol) (InChI Code)>  (273) 
InChI=1S/C5H9NO/c1-2-3-4-6-5-7/h2-4H2,1H3

>  <reference>  (273) 
ECHA

>  <molecule_form>  (273) 
V

>  <ID>  (273) 


>  <SMILES>  (273) 
CCCCN=C=O

>  <ROMol>  (273) 
<rdkit.Chem.rdchem.Mol object at 0x0000027F58905890>

$$$$

     RDKit          2D

 11 11  0  0  0  0  0  0  0  0999 V2000
    0.1488   -0.3770    0.0000 C   0  0  0  0  0  0  0  0  0  0  0  0
    0.1488    0.4480    0.0000 N   0  0  0  0  0  0  0  0  0  0  0  0
   -0.5657    0.8605    0.0000 C   0  0  0  0  0  0  0  0  0  0  0  0
   -0.5657    1.6855    0.0000 O   0  0  0  0  0  0  0  0  0  0  0  0
    0.1488    2.0980    0.0000 C   0  0  0  0  0  0  0  0  0  0  0  0
    0.8633    1.6855    0.0000 N   0  0  0  0  0  0  0  0  0  0  0  0
    0.8633    0.8605    0.0000 C   0  0  0  0  0  0  0  0  0  0  0  0
    1.5778    0.4480    0.0000 N   0  0  0  0  0  0  0  0  0  0  0  0
    1.5778   -0.3770    0.0000 N   0  0  0  0  0  0  0  0  0  0  0  0
    2.2922   -0.7895    0.0000 O   0  0  0  0  0  0  0  0  0  0  0  0
    0.8633   -0.7895    0.0000 O   0  0  0  0  0  0  0  0  0  0  0  0
  1  2  1  0
  2  3  1  0
  3  4  1  0
  4  5  1  0
  5  6  1  0
  6  7  2  0
  2  7  1  0
  7  8  1  0
  8  9  1  0
  9 10  1  0
  9 11  2  0
M  CHG  2   9   1  10  -1
M  END
>  <id>  (274) 
1784

>  <casrn>  (274) 
153719-38-1

>  <smiles (First)>  (274) 


>  <Molecular weight>  (274) 
160.13131713867188

>  <name>  (274) 
3-methyl-N-nitro-3,6-dihydro-2H-1,3,5-oxadiazin-4-amine

>  <Outcome>  (274) 
0

>  <Molecule (RDKit Mol) (InChI Code)>  (274) 
InChI=1S/C4H8N4O3/c1-7-3-11-2-5-4(7)6-8(9)10/h2-3H2,1H3,(H,5,6)

>  <reference>  (274) 
ECHA

>  <molecule_form>  (274) 
A

>  <ID>  (274) 


>  <SMILES>  (274) 
CN1COCN=C1N[N+](=O)[O-]

>  <ROMol>  (274) 
<rdkit.Chem.rdchem.Mol object at 0x0000027F5843A040>

$$$$

     RDKit          2D

 20 22  0  0  0  0  0  0  0  0999 V2000
    0.7145   -0.4125    0.0000 O   0  0  0  0  0  0  0  0  0  0  0  0
    0.7145   -1.2375    0.0000 C   0  0  0  0  0  0  0  0  0  0  0  0
    1.3819   -1.7224    0.0000 C   0  0  0  0  0  0  0  0  0  0  0  0
    1.1270   -2.5070    0.0000 C   0  0  0  0  0  0  0  0  0  0  0  0
    0.3020   -2.5070    0.0000 C   0  0  0  0  0  0  0  0  0  0  0  0
   -0.1829   -3.1745    0.0000 O   0  0  0  0  0  0  0  0  0  0  0  0
    0.0470   -1.7224    0.0000 N   0  0  0  0  0  0  0  0  0  0  0  0
   -0.7376   -1.4675    0.0000 C   0  0  0  0  0  0  0  0  0  0  0  0
   -1.3507   -2.0195    0.0000 C   0  0  0  0  0  0  0  0  0  0  0  0
   -2.1353   -1.7646    0.0000 C   0  0  0  0  0  0  0  0  0  0  0  0
   -2.3068   -0.9576    0.0000 C   0  0  0  0  0  0  0  0  0  0  0  0
   -1.6937   -0.4056    0.0000 C   0  0  0  0  0  0  0  0  0  0  0  0
   -1.8653    0.4014    0.0000 N   0  0  0  0  0  0  0  0  0  0  0  0
   -2.6189    0.7370    0.0000 C   0  0  0  0  0  0  0  0  0  0  0  0
   -3.3334    0.3245    0.0000 O   0  0  0  0  0  0  0  0  0  0  0  0
   -2.5327    1.5574    0.0000 C   0  0  0  0  0  0  0  0  0  0  0  0
   -1.7257    1.7290    0.0000 C   0  0  0  0  0  0  0  0  0  0  0  0
   -1.3132    1.0145    0.0000 C   0  0  0  0  0  0  0  0  0  0  0  0
   -0.4927    0.9283    0.0000 O   0  0  0  0  0  0  0  0  0  0  0  0
   -0.9091   -0.6605    0.0000 C   0  0  0  0  0  0  0  0  0  0  0  0
  1  2  2  0
  2  3  1  0
  3  4  2  0
  4  5  1  0
  5  6  2  0
  5  7  1  0
  2  7  1  0
  7  8  1  0
  8  9  2  0
  9 10  1  0
 10 11  2  0
 11 12  1  0
 12 13  1  0
 13 14  1  0
 14 15  2  0
 14 16  1  0
 16 17  2  0
 17 18  1  0
 13 18  1  0
 18 19  2  0
 12 20  2  0
  8 20  1  0
M  END
>  <id>  (275) 
1108

>  <casrn>  (275) 
3006-93-7

>  <smiles (First)>  (275) 


>  <Molecular weight>  (275) 
268.2243347167969

>  <name>  (275) 
1-[3-(2,5-dioxo-2,5-dihydro-1H-pyrrol-1-yl)phenyl]-2,5-dihydro-1H-pyrrole-2,5-dione

>  <Outcome>  (275) 
1

>  <Molecule (RDKit Mol) (InChI Code)>  (275) 
InChI=1S/C14H8N2O4/c17-11-4-5-12(18)15(11)9-2-1-3-10(8-9)16-13(19)6-7-14(16)20/h1-8H

>  <reference>  (275) 
ECHA

>  <molecule_form>  (275) 
A

>  <ID>  (275) 


>  <SMILES>  (275) 
O=C1C=CC(=O)N1c1cccc(N2C(=O)C=CC2=O)c1

>  <ROMol>  (275) 
<rdkit.Chem.rdchem.Mol object at 0x0000027F58428580>

$$$$

     RDKit          2D

  8  8  0  0  0  0  0  0  0  0999 V2000
    1.6511    2.2175    0.0000 C   0  0  0  0  0  0  0  0  0  0  0  0
    1.6511    1.3925    0.0000 C   0  0  0  0  0  0  0  0  0  0  0  0
    0.9366    0.9800    0.0000 N   0  0  0  0  0  0  0  0  0  0  0  0
    0.9366    0.1550    0.0000 C   0  0  0  0  0  0  0  0  0  0  0  0
    0.2222   -0.2575    0.0000 C   0  0  0  0  0  0  0  0  0  0  0  0
   -0.4923    0.1550    0.0000 C   0  0  0  0  0  0  0  0  0  0  0  0
   -0.4923    0.9800    0.0000 C   0  0  0  0  0  0  0  0  0  0  0  0
    0.2222    1.3925    0.0000 C   0  0  0  0  0  0  0  0  0  0  0  0
  1  2  1  0
  2  3  1  0
  3  4  1  0
  4  5  1  0
  5  6  1  0
  6  7  1  0
  7  8  1  0
  3  8  1  0
M  END
>  <id>  (276) 
1164

>  <casrn>  (276) 
766-09-6

>  <smiles (First)>  (276) 


>  <Molecular weight>  (276) 
113.20069885253906

>  <name>  (276) 
1-ethylpiperidine

>  <Outcome>  (276) 
1

>  <Molecule (RDKit Mol) (InChI Code)>  (276) 
InChI=1S/C7H15N/c1-2-8-6-4-3-5-7-8/h2-7H2,1H3

>  <reference>  (276) 
ECHA

>  <molecule_form>  (276) 
V

>  <ID>  (276) 


>  <SMILES>  (276) 
CCN1CCCCC1

>  <ROMol>  (276) 
<rdkit.Chem.rdchem.Mol object at 0x0000027F624DD350>

$$$$

     RDKit          2D

  4  4  0  0  0  0  0  0  0  0999 V2000
    0.5194    1.7798    0.0000 C   0  0  0  0  0  0  0  0  0  0  0  0
    0.5194    0.9548    0.0000 C   0  0  0  0  0  0  0  0  0  0  0  0
    0.9319    0.2403    0.0000 C   0  0  0  0  0  0  0  0  0  0  0  0
    0.1069    0.2403    0.0000 O   0  0  0  0  0  0  0  0  0  0  0  0
  1  2  1  0
  2  3  1  0
  3  4  1  0
  2  4  1  0
M  END
>  <id>  (277) 
1642

>  <casrn>  (277) 
75-56-9

>  <smiles (First)>  (277) 


>  <Molecular weight>  (277) 
58.079139709472656

>  <name>  (277) 
2-methyloxirane

>  <Outcome>  (277) 
1

>  <Molecule (RDKit Mol) (InChI Code)>  (277) 
InChI=1S/C3H6O/c1-3-2-4-3/h3H,2H2,1H3

>  <reference>  (277) 
ECHA

>  <molecule_form>  (277) 
V

>  <ID>  (277) 


>  <SMILES>  (277) 
CC1CO1

>  <ROMol>  (277) 
<rdkit.Chem.rdchem.Mol object at 0x0000027F5843AC10>

$$$$

     RDKit          2D

 20 19  0  0  0  0  0  0  0  0999 V2000
    0.3316    2.6664    0.0000 O   0  0  0  0  0  0  0  0  0  0  0  0
    0.3316    1.8414    0.0000 C   0  0  0  0  0  0  0  0  0  0  0  0
    1.0461    1.4289    0.0000 N   0  0  0  0  0  0  0  0  0  0  0  0
    1.7605    1.8414    0.0000 C   0  0  0  0  0  0  0  0  0  0  0  0
    2.4750    1.4289    0.0000 C   0  0  0  0  0  0  0  0  0  0  0  0
    3.1895    1.8414    0.0000 C   0  0  0  0  0  0  0  0  0  0  0  0
    3.9039    1.4289    0.0000 C   0  0  0  0  0  0  0  0  0  0  0  0
    4.6184    1.8414    0.0000 C   0  0  0  0  0  0  0  0  0  0  0  0
    5.3329    1.4289    0.0000 C   0  0  0  0  0  0  0  0  0  0  0  0
    6.0474    1.8414    0.0000 N   0  0  0  0  0  0  0  0  0  0  0  0
    6.7618    1.4289    0.0000 C   0  0  0  0  0  0  0  0  0  0  0  0
    6.7618    0.6039    0.0000 O   0  0  0  0  0  0  0  0  0  0  0  0
    7.4763    1.8414    0.0000 S   0  0  0  0  0  0  0  0  0  0  0  0
    8.1908    2.2539    0.0000 O   0  0  0  0  0  0  0  0  0  0  0  0
    7.0638    2.5559    0.0000 O   0  0  0  0  0  0  0  0  0  0  0  0
    7.8888    1.1269    0.0000 O   0  0  0  0  0  0  0  0  0  0  0  0
   -0.3829    1.4289    0.0000 S   0  0  0  0  0  0  0  0  0  0  0  0
   -1.0974    1.0164    0.0000 O   0  0  0  0  0  0  0  0  0  0  0  0
   -0.7954    2.1434    0.0000 O   0  0  0  0  0  0  0  0  0  0  0  0
    0.0296    0.7144    0.0000 O   0  0  0  0  0  0  0  0  0  0  0  0
  1  2  2  0
  2  3  1  0
  3  4  1  0
  4  5  1  0
  5  6  1  0
  6  7  1  0
  7  8  1  0
  8  9  1  0
  9 10  1  0
 10 11  1  0
 11 12  2  0
 11 13  1  0
 13 14  2  0
 13 15  2  0
 13 16  1  0
  2 17  1  0
 17 18  2  0
 17 19  2  0
 17 20  1  0
M  END
>  <id>  (278) 
4196

>  <casrn>  (278) 
38632-47-2

>  <smiles (First)>  (278) 


>  <Molecular weight>  (278) 
330.3353576660156

>  <name>  (278) 
unnamed [38632-47-2]

>  <Outcome>  (278) 
0

>  <Molecule (RDKit Mol) (InChI Code)>  (278) 
InChI=1S/C8H16N2O8S2/c11-7(19(13,14)15)9-5-3-1-2-4-6-10-8(12)20(16,17)18/h1-6H2,(H,9,11)(H,10,12)(H,13,14,15)(H,16,17,18)

>  <reference>  (278) 
ECHA

>  <molecule_form>  (278) 
A

>  <ID>  (278) 


>  <SMILES>  (278) 
O=C(NCCCCCCNC(=O)S(=O)(=O)O)S(=O)(=O)O

>  <ROMol>  (278) 
<rdkit.Chem.rdchem.Mol object at 0x0000027F583F4900>

$$$$

     RDKit          2D

  5  5  0  0  0  0  0  0  0  0999 V2000
    0.6674    0.2169    0.0000 C   0  0  0  0  0  0  0  0  0  0  0  0
   -0.0000    0.7018    0.0000 C   0  0  0  0  0  0  0  0  0  0  0  0
   -0.6674    0.2169    0.0000 C   0  0  0  0  0  0  0  0  0  0  0  0
   -0.4125   -0.5677    0.0000 C   0  0  0  0  0  0  0  0  0  0  0  0
    0.4125   -0.5677    0.0000 C   0  0  0  0  0  0  0  0  0  0  0  0
  2  1  1  0
  3  2  1  0
  4  3  1  0
  5  4  1  0
  1  5  1  0
M  END
>  <id>  (279) 
255300

>  <casrn>  (279) 
287-92-3

>  <smiles (First)>  (279) 
C1CCCC1

>  <Molecular weight>  (279) 
70.13290405273438

>  <name>  (279) 
Cyclopentane

>  <Outcome>  (279) 
0

>  <Molecule (RDKit Mol) (InChI Code)>  (279) 
InChI=1S/C5H10/c1-2-4-5-3-1/h1-5H2

>  <reference>  (279) 
ToxValDB

>  <molecule_form>  (279) 
not specified

>  <ID>  (279) 


>  <SMILES>  (279) 
C1CCCC1

>  <ROMol>  (279) 
<rdkit.Chem.rdchem.Mol object at 0x0000027F58444DD0>

$$$$

     RDKit          2D

  2  1  0  0  0  0  0  0  0  0999 V2000
    0.8250    0.0000    0.0000 C   0  0  0  0  0  0  0  0  0  0  0  0
   -0.0000    0.0000    0.0000 S   0  0  0  0  0  0  0  0  0  0  0  0
  1  2  1  0
M  END
>  <id>  (280) 
3429

>  <casrn>  (280) 
74-93-1

>  <smiles (First)>  (280) 


>  <Molecular weight>  (280) 
48.107460021972656

>  <name>  (280) 
methanethiol

>  <Outcome>  (280) 
1

>  <Molecule (RDKit Mol) (InChI Code)>  (280) 
InChI=1S/CH4S/c1-2/h2H,1H3

>  <reference>  (280) 
ECHA

>  <molecule_form>  (280) 
G

>  <ID>  (280) 


>  <SMILES>  (280) 
CS

>  <ROMol>  (280) 
<rdkit.Chem.rdchem.Mol object at 0x0000027F58408820>

$$$$

     RDKit          2D

  8  8  0  0  0  0  0  0  0  0999 V2000
    1.7200   -1.9885    0.0000 C   0  0  0  0  0  0  0  0  0  0  0  0
    1.7200   -1.1635    0.0000 N   0  0  0  0  0  0  0  0  0  0  0  0
    2.5450   -1.1635    0.0000 C   0  0  0  0  0  0  0  0  0  0  0  0
    0.8950   -1.1635    0.0000 C   0  0  0  0  0  0  0  0  0  0  0  0
    1.7200   -0.3385    0.0000 C   0  0  0  0  0  0  0  0  0  0  0  0
    1.0055    0.0740    0.0000 C   0  0  0  0  0  0  0  0  0  0  0  0
    0.5930    0.7884    0.0000 C   0  0  0  0  0  0  0  0  0  0  0  0
    0.1805    0.0740    0.0000 O   0  0  0  0  0  0  0  0  0  0  0  0
  1  2  1  0
  2  3  1  0
  2  4  1  0
  2  5  1  0
  5  6  1  0
  7  6  1  0
  8  7  1  0
  6  8  1  0
M  CHG  1   2   1
M  END
>  <id>  (281) 
256441

>  <casrn>  (281) 
3033-77-0

>  <smiles (First)>  (281) 
[Cl-].C[N+](C)(C)CC1CO1

>  <Molecular weight>  (281) 
116.18145751953125

>  <name>  (281) 
Glycidyl trimethylammonium chloride

>  <Outcome>  (281) 
1

>  <Molecule (RDKit Mol) (InChI Code)>  (281) 
InChI=1S/C6H14NO/c1-7(2,3)4-6-5-8-6/h6H,4-5H2,1-3H3/q+1

>  <reference>  (281) 
ToxValDB

>  <molecule_form>  (281) 
not specified

>  <ID>  (281) 


>  <SMILES>  (281) 
C[N+](C)(C)CC1CO1

>  <ROMol>  (281) 
<rdkit.Chem.rdchem.Mol object at 0x0000027F5BB49CF0>

$$$$

     RDKit          2D

 10 11  0  0  0  0  0  0  0  0999 V2000
   -1.7263    0.0708    0.0000 C   0  0  0  0  0  0  0  0  0  0  0  0
   -1.0119    0.4833    0.0000 C   0  0  0  0  0  0  0  0  0  0  0  0
   -0.2974    0.0708    0.0000 C   0  0  0  0  0  0  0  0  0  0  0  0
    0.4171    0.4833    0.0000 C   0  0  0  0  0  0  0  0  0  0  0  0
    1.1315    0.0708    0.0000 C   0  0  0  0  0  0  0  0  0  0  0  0
    1.1315   -0.7542    0.0000 C   0  0  0  0  0  0  0  0  0  0  0  0
    0.4171   -1.1667    0.0000 C   0  0  0  0  0  0  0  0  0  0  0  0
   -0.2974   -0.7542    0.0000 C   0  0  0  0  0  0  0  0  0  0  0  0
   -1.0119   -1.1667    0.0000 C   0  0  0  0  0  0  0  0  0  0  0  0
   -1.7263   -0.7542    0.0000 N   0  0  0  0  0  0  0  0  0  0  0  0
  2  1  1  0
  3  2  1  0
  3  4  2  0
  4  5  1  0
  5  6  2  0
  6  7  1  0
  7  8  2  0
  9  8  1  0
 10  9  1  0
  1 10  1  0
  8  3  1  0
M  END
>  <id>  (282) 
341289

>  <casrn>  (282) 
91-21-4

>  <smiles (First)>  (282) 
C1Cc2ccccc2CN1

>  <Molecular weight>  (282) 
133.19033813476562

>  <name>  (282) 
1,2,3,4-Tetrahydroisoquinoline

>  <Outcome>  (282) 
1

>  <Molecule (RDKit Mol) (InChI Code)>  (282) 
InChI=1S/C9H11N/c1-2-4-9-7-10-6-5-8(9)3-1/h1-4,10H,5-7H2

>  <reference>  (282) 
ToxValDB

>  <molecule_form>  (282) 
not specified

>  <ID>  (282) 


>  <SMILES>  (282) 
c1ccc2c(c1)CCNC2

>  <ROMol>  (282) 
<rdkit.Chem.rdchem.Mol object at 0x0000027F58444CF0>

$$$$

     RDKit          2D

  5  4  0  0  0  0  0  0  0  0999 V2000
    0.8538   -0.7298    0.0000 C   0  0  0  0  0  0  0  0  0  0  0  0
    0.8538    0.0952    0.0000 C   0  0  0  0  0  0  0  0  0  0  0  0
    0.8538    0.9202    0.0000 C   0  0  0  0  0  0  0  0  0  0  0  0
    1.6788    0.0952    0.0000 C   0  0  0  0  0  0  0  0  0  0  0  0
    0.0288    0.0952    0.0000 O   0  0  0  0  0  0  0  0  0  0  0  0
  1  2  1  0
  2  3  1  0
  2  4  1  0
  2  5  1  0
M  END
>  <id>  (283) 
1660

>  <casrn>  (283) 
75-65-0

>  <smiles (First)>  (283) 


>  <Molecular weight>  (283) 
74.1216049194336

>  <name>  (283) 
2-methylpropan-2-ol

>  <Outcome>  (283) 
0

>  <Molecule (RDKit Mol) (InChI Code)>  (283) 
InChI=1S/C4H10O/c1-4(2,3)5/h5H,1-3H3

>  <reference>  (283) 
ECHA

>  <molecule_form>  (283) 
V

>  <ID>  (283) 


>  <SMILES>  (283) 
CC(C)(C)O

>  <ROMol>  (283) 
<rdkit.Chem.rdchem.Mol object at 0x0000027F58437DD0>

$$$$

     RDKit          2D

 11 10  0  0  0  0  0  0  0  0999 V2000
    2.9980    2.5575    0.0000 C   0  0  0  0  0  0  0  0  0  0  0  0
    3.7125    2.1450    0.0000 O   0  0  0  0  0  0  0  0  0  0  0  0
    4.4270    2.5575    0.0000 C   0  0  0  0  0  0  0  0  0  0  0  0
    4.4270    3.3825    0.0000 O   0  0  0  0  0  0  0  0  0  0  0  0
    5.1414    2.1450    0.0000 C   0  0  0  0  0  0  0  0  0  0  0  0
    5.8559    2.5575    0.0000 C   0  0  0  0  0  0  0  0  0  0  0  0
    6.5704    2.1450    0.0000 C   0  0  0  0  0  0  0  0  0  0  0  0
    7.2848    2.5575    0.0000 C   0  0  0  0  0  0  0  0  0  0  0  0
    7.2848    3.3825    0.0000 O   0  0  0  0  0  0  0  0  0  0  0  0
    7.9993    2.1450    0.0000 O   0  0  0  0  0  0  0  0  0  0  0  0
    8.7138    2.5575    0.0000 C   0  0  0  0  0  0  0  0  0  0  0  0
  1  2  1  0
  2  3  1  0
  3  4  2  0
  3  5  1  0
  5  6  1  0
  6  7  1  0
  7  8  1  0
  8  9  2  0
  8 10  1  0
 10 11  1  0
M  END
>  <id>  (284) 
1074

>  <casrn>  (284) 
1119-40-0

>  <smiles (First)>  (284) 


>  <Molecular weight>  (284) 
160.16778564453125

>  <name>  (284) 
1,5-dimethyl pentanedioate

>  <Outcome>  (284) 
0

>  <Molecule (RDKit Mol) (InChI Code)>  (284) 
InChI=1S/C7H12O4/c1-10-6(8)4-3-5-7(9)11-2/h3-5H2,1-2H3

>  <reference>  (284) 
ECHA

>  <molecule_form>  (284) 
A

>  <ID>  (284) 


>  <SMILES>  (284) 
COC(=O)CCCC(=O)OC

>  <ROMol>  (284) 
<rdkit.Chem.rdchem.Mol object at 0x0000027F78E2C5F0>

$$$$

     RDKit          2D

  7  6  0  0  0  0  0  0  0  0999 V2000
    2.9430   -0.7423    0.0000 C   0  0  0  0  0  0  0  0  0  0  0  0
    2.5305   -0.0279    0.0000 C   0  0  0  0  0  0  0  0  0  0  0  0
    1.7055   -0.0279    0.0000 Al  0  0  0  0  0  3  0  0  0  0  0  0
    1.2930    0.6866    0.0000 C   0  0  0  0  0  0  0  0  0  0  0  0
    0.4680    0.6866    0.0000 C   0  0  0  0  0  0  0  0  0  0  0  0
    1.2930   -0.7423    0.0000 C   0  0  0  0  0  0  0  0  0  0  0  0
    0.4680   -0.7423    0.0000 C   0  0  0  0  0  0  0  0  0  0  0  0
  1  2  1  0
  2  3  1  0
  3  4  1  0
  4  5  1  0
  3  6  1  0
  6  7  1  0
M  END
>  <id>  (285) 
353277

>  <casrn>  (285) 
97-93-8

>  <smiles (First)>  (285) 
CC[Al](CC)CC

>  <Molecular weight>  (285) 
114.16484069824219

>  <name>  (285) 
Triethylaluminum

>  <Outcome>  (285) 
1

>  <Molecule (RDKit Mol) (InChI Code)>  (285) 
InChI=1S/3C2H5.Al/c3*1-2;/h3*1H2,2H3;

>  <reference>  (285) 
ToxValDB

>  <molecule_form>  (285) 
not specified

>  <ID>  (285) 


>  <SMILES>  (285) 
CC[Al](CC)CC

>  <ROMol>  (285) 
<rdkit.Chem.rdchem.Mol object at 0x0000027F78D93CF0>

$$$$

     RDKit          2D

  7  6  0  0  0  0  0  0  0  0999 V2000
    1.2925    2.2151    0.0000 C   0  0  0  0  0  0  0  0  0  0  0  0
    0.8800    1.5006    0.0000 O   0  0  0  0  0  0  0  0  0  0  0  0
    1.2925    0.7861    0.0000 C   0  0  0  0  0  0  0  0  0  0  0  0
    2.1175    0.7861    0.0000 O   0  0  0  0  0  0  0  0  0  0  0  0
    0.8800    0.0717    0.0000 C   0  0  0  0  0  0  0  0  0  0  0  0
    1.2925   -0.6428    0.0000 C   0  0  0  0  0  0  0  0  0  0  0  0
    0.0550    0.0717    0.0000 O   0  0  0  0  0  0  0  0  0  0  0  0
  1  2  1  0
  2  3  1  0
  3  4  2  0
  3  5  1  0
  5  6  1  0
  5  7  1  0
M  END
>  <id>  (286) 
3448

>  <casrn>  (286) 
17392-83-5

>  <smiles (First)>  (286) 


>  <Molecular weight>  (286) 
104.10452270507812

>  <name>  (286) 
methyl 2-hydroxypropanoate

>  <Outcome>  (286) 
0

>  <Molecule (RDKit Mol) (InChI Code)>  (286) 
InChI=1S/C4H8O3/c1-3(5)4(6)7-2/h3,5H,1-2H3

>  <reference>  (286) 
ECHA

>  <molecule_form>  (286) 
A

>  <ID>  (286) 


>  <SMILES>  (286) 
COC(=O)C(C)O

>  <ROMol>  (286) 
<rdkit.Chem.rdchem.Mol object at 0x0000027F584082E0>

$$$$

     RDKit          2D

 11 10  0  0  0  0  0  0  0  0999 V2000
    3.0164    2.5341    0.0000 C   0  0  0  0  0  0  0  0  0  0  0  0
    3.7309    2.1216    0.0000 N   0  0  0  0  0  0  0  0  0  0  0  0
    3.7309    1.2966    0.0000 C   0  0  0  0  0  0  0  0  0  0  0  0
    4.4453    2.5341    0.0000 C   0  0  0  0  0  0  0  0  0  0  0  0
    5.1598    2.1216    0.0000 C   0  0  0  0  0  0  0  0  0  0  0  0
    5.8743    2.5341    0.0000 O   0  0  0  0  0  0  0  0  0  0  0  0
    6.5887    2.1216    0.0000 C   0  0  0  0  0  0  0  0  0  0  0  0
    7.3032    2.5341    0.0000 C   0  0  0  0  0  0  0  0  0  0  0  0
    8.0177    2.1216    0.0000 N   0  0  0  0  0  0  0  0  0  0  0  0
    8.7321    2.5341    0.0000 C   0  0  0  0  0  0  0  0  0  0  0  0
    8.0177    1.2966    0.0000 C   0  0  0  0  0  0  0  0  0  0  0  0
  1  2  1  0
  2  3  1  0
  2  4  1  0
  4  5  1  0
  5  6  1  0
  6  7  1  0
  7  8  1  0
  8  9  1  0
  9 10  1  0
  9 11  1  0
M  END
>  <id>  (287) 
4645

>  <casrn>  (287) 
3033-62-3

>  <smiles (First)>  (287) 


>  <Molecular weight>  (287) 
160.2572021484375

>  <name>  (287) 
{2-[2-(dimethylamino)ethoxy]ethyl}dimethylamine

>  <Outcome>  (287) 
1

>  <Molecule (RDKit Mol) (InChI Code)>  (287) 
InChI=1S/C8H20N2O/c1-9(2)5-7-11-8-6-10(3)4/h5-8H2,1-4H3

>  <reference>  (287) 
ECHA

>  <molecule_form>  (287) 
A

>  <ID>  (287) 


>  <SMILES>  (287) 
CN(C)CCOCCN(C)C

>  <ROMol>  (287) 
<rdkit.Chem.rdchem.Mol object at 0x0000027F589057B0>

$$$$

     RDKit          2D

 13 13  0  0  0  0  0  0  0  0999 V2000
    1.5481    2.3183    0.0000 C   0  0  0  0  0  0  0  0  0  0  0  0
    0.7231    2.3183    0.0000 C   0  0  0  0  0  0  0  0  0  0  0  0
   -0.1019    2.3183    0.0000 C   0  0  0  0  0  0  0  0  0  0  0  0
    0.7231    1.4933    0.0000 C   0  0  0  0  0  0  0  0  0  0  0  0
    1.4376    1.0808    0.0000 C   0  0  0  0  0  0  0  0  0  0  0  0
    1.4376    0.2558    0.0000 C   0  0  0  0  0  0  0  0  0  0  0  0
    0.7231   -0.1567    0.0000 C   0  0  0  0  0  0  0  0  0  0  0  0
    0.0087    0.2558    0.0000 C   0  0  0  0  0  0  0  0  0  0  0  0
    0.0087    1.0808    0.0000 C   0  0  0  0  0  0  0  0  0  0  0  0
    0.7231    3.1433    0.0000 S   0  0  0  0  0  0  0  0  0  0  0  0
    0.7231    3.9683    0.0000 O   0  0  0  0  0  0  0  0  0  0  0  0
    1.5481    3.1433    0.0000 O   0  0  0  0  0  0  0  0  0  0  0  0
   -0.1019    3.1433    0.0000 O   0  0  0  0  0  0  0  0  0  0  0  0
  1  2  1  0
  2  3  1  0
  2  4  1  0
  4  5  2  0
  5  6  1  0
  6  7  2  0
  7  8  1  0
  8  9  2  0
  4  9  1  0
  2 10  1  0
 10 11  2  0
 10 12  2  0
 10 13  1  0
M  END
>  <id>  (288) 
3867

>  <casrn>  (288) 
28348-53-0

>  <smiles (First)>  (288) 


>  <Molecular weight>  (288) 
199.24684143066406

>  <name>  (288) 
sodium cumenesulphonate

>  <Outcome>  (288) 
0

>  <Molecule (RDKit Mol) (InChI Code)>  (288) 
InChI=1S/C9H12O3S/c1-9(2,13(10,11)12)8-6-4-3-5-7-8/h3-7H,1-2H3,(H,10,11,12)

>  <reference>  (288) 
ECHA

>  <molecule_form>  (288) 
A

>  <ID>  (288) 


>  <SMILES>  (288) 
CC(C)(c1ccccc1)S(=O)(=O)O

>  <ROMol>  (288) 
<rdkit.Chem.rdchem.Mol object at 0x0000027F58437350>

$$$$

     RDKit          2D

 26 25  0  0  0  0  0  0  0  0999 V2000
    2.4434   -8.8100    0.0000 C   0  0  0  0  0  0  0  0  0  0  0  0
    2.0309   -8.0955    0.0000 C   0  0  0  0  0  0  0  0  0  0  0  0
    2.4434   -7.3810    0.0000 C   0  0  0  0  0  0  0  0  0  0  0  0
    2.0309   -6.6666    0.0000 C   0  0  0  0  0  0  0  0  0  0  0  0
    2.4434   -5.9521    0.0000 O   0  0  0  0  0  0  0  0  0  0  0  0
    2.0309   -5.2376    0.0000 C   0  0  0  0  0  0  0  0  0  0  0  0
    2.4434   -4.5232    0.0000 C   0  0  0  0  0  0  0  0  0  0  0  0
    2.0309   -3.8087    0.0000 O   0  0  0  0  0  0  0  0  0  0  0  0
    2.4434   -3.0942    0.0000 P   0  0  0  0  0  0  0  0  0  0  0  0
    3.1578   -3.5067    0.0000 O   0  0  0  0  0  0  0  0  0  0  0  0
    2.8559   -2.3797    0.0000 O   0  0  0  0  0  0  0  0  0  0  0  0
    3.6809   -2.3797    0.0000 C   0  0  0  0  0  0  0  0  0  0  0  0
    4.0934   -3.0942    0.0000 C   0  0  0  0  0  0  0  0  0  0  0  0
    4.9184   -3.0942    0.0000 O   0  0  0  0  0  0  0  0  0  0  0  0
    5.3309   -3.8087    0.0000 C   0  0  0  0  0  0  0  0  0  0  0  0
    6.1559   -3.8087    0.0000 C   0  0  0  0  0  0  0  0  0  0  0  0
    6.5684   -4.5232    0.0000 C   0  0  0  0  0  0  0  0  0  0  0  0
    7.3934   -4.5232    0.0000 C   0  0  0  0  0  0  0  0  0  0  0  0
    1.7289   -2.6817    0.0000 O   0  0  0  0  0  0  0  0  0  0  0  0
    1.7289   -1.8567    0.0000 C   0  0  0  0  0  0  0  0  0  0  0  0
    2.4434   -1.4442    0.0000 C   0  0  0  0  0  0  0  0  0  0  0  0
    3.1578   -1.8567    0.0000 O   0  0  0  0  0  0  0  0  0  0  0  0
    3.8723   -1.4442    0.0000 C   0  0  0  0  0  0  0  0  0  0  0  0
    4.5868   -1.8567    0.0000 C   0  0  0  0  0  0  0  0  0  0  0  0
    5.3013   -1.4442    0.0000 C   0  0  0  0  0  0  0  0  0  0  0  0
    6.0157   -1.8567    0.0000 C   0  0  0  0  0  0  0  0  0  0  0  0
  1  2  1  0
  2  3  1  0
  3  4  1  0
  4  5  1  0
  5  6  1  0
  6  7  1  0
  7  8  1  0
  8  9  1  0
  9 10  2  0
  9 11  1  0
 11 12  1  0
 12 13  1  0
 13 14  1  0
 14 15  1  0
 15 16  1  0
 16 17  1  0
 17 18  1  0
  9 19  1  0
 19 20  1  0
 20 21  1  0
 21 22  1  0
 22 23  1  0
 23 24  1  0
 24 25  1  0
 25 26  1  0
M  END
>  <id>  (289) 
4112

>  <casrn>  (289) 
78-51-3

>  <smiles (First)>  (289) 


>  <Molecular weight>  (289) 
398.4718322753906

>  <name>  (289) 
tris(2-butoxyethyl) phosphate

>  <Outcome>  (289) 
0

>  <Molecule (RDKit Mol) (InChI Code)>  (289) 
InChI=1S/C18H39O7P/c1-4-7-10-20-13-16-23-26(19,24-17-14-21-11-8-5-2)25-18-15-22-12-9-6-3/h4-18H2,1-3H3

>  <reference>  (289) 
ECHA

>  <molecule_form>  (289) 
A

>  <ID>  (289) 


>  <SMILES>  (289) 
CCCCOCCOP(=O)(OCCOCCCC)OCCOCCCC

>  <ROMol>  (289) 
<rdkit.Chem.rdchem.Mol object at 0x0000027F5C144EB0>

$$$$

     RDKit          2D

  6  5  0  0  0  0  0  0  0  0999 V2000
    2.4750   -1.4289    0.0000 O   0  0  0  0  0  0  0  0  0  0  0  0
    2.0625   -0.7145    0.0000 C   0  0  0  0  0  0  0  0  0  0  0  0
    2.4750   -0.0000    0.0000 O   0  0  0  0  0  0  0  0  0  0  0  0
    1.2375   -0.7145    0.0000 C   0  0  0  0  0  0  0  0  0  0  0  0
    0.8250   -0.0000    0.0000 C   0  0  0  0  0  0  0  0  0  0  0  0
   -0.0000   -0.0000    0.0000 S   0  0  0  0  0  0  0  0  0  0  0  0
  1  2  2  0
  2  3  1  0
  2  4  1  0
  4  5  1  0
  5  6  1  0
M  END
>  <id>  (290) 
1806

>  <casrn>  (290) 
107-96-0

>  <smiles (First)>  (290) 


>  <Molecular weight>  (290) 
106.14353942871094

>  <name>  (290) 
3-sulfanylpropanoic acid

>  <Outcome>  (290) 
1

>  <Molecule (RDKit Mol) (InChI Code)>  (290) 
InChI=1S/C3H6O2S/c4-3(5)1-2-6/h6H,1-2H2,(H,4,5)

>  <reference>  (290) 
ECHA

>  <molecule_form>  (290) 
A

>  <ID>  (290) 


>  <SMILES>  (290) 
O=C(O)CCS

>  <ROMol>  (290) 
<rdkit.Chem.rdchem.Mol object at 0x0000027F62463350>

$$$$

     RDKit          2D

  7  8  0  0  0  0  0  0  0  0999 V2000
    2.8543    1.6500    0.0000 C   0  0  0  0  0  0  0  0  0  0  0  0
    2.8543    0.8250    0.0000 C   0  0  0  0  0  0  0  0  0  0  0  0
    2.1398    0.4125    0.0000 C   0  0  0  0  0  0  0  0  0  0  0  0
    1.4253    0.8250    0.0000 C   0  0  0  0  0  0  0  0  0  0  0  0
    0.7109    1.2375    0.0000 O   0  0  0  0  0  0  0  0  0  0  0  0
    1.4253    1.6500    0.0000 C   0  0  0  0  0  0  0  0  0  0  0  0
    2.1398    2.0625    0.0000 C   0  0  0  0  0  0  0  0  0  0  0  0
  1  2  1  0
  2  3  1  0
  3  4  1  0
  4  5  1  0
  5  6  1  0
  4  6  1  0
  6  7  1  0
  1  7  1  0
M  END
>  <id>  (291) 
1891

>  <casrn>  (291) 
286-20-4

>  <smiles (First)>  (291) 


>  <Molecular weight>  (291) 
98.14300537109375

>  <name>  (291) 
7-oxabicyclo[4.1.0]heptane

>  <Outcome>  (291) 
1

>  <Molecule (RDKit Mol) (InChI Code)>  (291) 
InChI=1S/C6H10O/c1-2-4-6-5(3-1)7-6/h5-6H,1-4H2

>  <reference>  (291) 
ECHA

>  <molecule_form>  (291) 
V

>  <ID>  (291) 


>  <SMILES>  (291) 
C1CCC2OC2C1

>  <ROMol>  (291) 
<rdkit.Chem.rdchem.Mol object at 0x0000027F78E373C0>

$$$$

     RDKit          2D

  4  3  0  0  0  0  0  0  0  0999 V2000
    1.2375    0.7145    0.0000 O   0  0  0  0  0  0  0  0  0  0  0  0
    0.8250   -0.0000    0.0000 C   0  0  0  0  0  0  0  0  0  0  0  0
    1.2375   -0.7145    0.0000 F   0  0  0  0  0  0  0  0  0  0  0  0
    0.0000   -0.0000    0.0000 F   0  0  0  0  0  0  0  0  0  0  0  0
  1  2  2  0
  2  3  1  0
  2  4  1  0
M  END
>  <id>  (292) 
2779

>  <casrn>  (292) 
353-50-4

>  <smiles (First)>  (292) 


>  <Molecular weight>  (292) 
66.00690460205078

>  <name>  (292) 
carbonyl difluoride

>  <Outcome>  (292) 
1

>  <Molecule (RDKit Mol) (InChI Code)>  (292) 
InChI=1S/CF2O/c2-1(3)4

>  <reference>  (292) 
ECHA

>  <molecule_form>  (292) 
G

>  <ID>  (292) 


>  <SMILES>  (292) 
O=C(F)F

>  <ROMol>  (292) 
<rdkit.Chem.rdchem.Mol object at 0x0000027F584280B0>

$$$$

     RDKit          2D

 21 20  0  0  0  0  0  0  0  0999 V2000
    8.4711    5.7158    0.0000 C   0  0  0  0  0  0  0  0  0  0  0  0
    9.1855    6.1283    0.0000 C   0  0  0  0  0  0  0  0  0  0  0  0
    9.9000    5.7158    0.0000 C   0  0  0  0  0  0  0  0  0  0  0  0
   10.6145    6.1283    0.0000 C   0  0  0  0  0  0  0  0  0  0  0  0
   11.3289    5.7158    0.0000 C   0  0  0  0  0  0  0  0  0  0  0  0
   12.0434    6.1283    0.0000 C   0  0  0  0  0  0  0  0  0  0  0  0
   12.7579    5.7158    0.0000 C   0  0  0  0  0  0  0  0  0  0  0  0
   13.4724    6.1283    0.0000 C   0  0  0  0  0  0  0  0  0  0  0  0
   14.1868    5.7158    0.0000 C   0  0  0  0  0  0  0  0  0  0  0  0
   14.9013    6.1283    0.0000 C   0  0  0  0  0  0  0  0  0  0  0  0
   15.6158    5.7158    0.0000 C   0  0  0  0  0  0  0  0  0  0  0  0
   16.3302    6.1283    0.0000 C   0  0  0  0  0  0  0  0  0  0  0  0
   17.0447    5.7158    0.0000 C   0  0  0  0  0  0  0  0  0  0  0  0
   17.7592    6.1283    0.0000 C   0  0  0  0  0  0  0  0  0  0  0  0
   18.4737    5.7158    0.0000 C   0  0  0  0  0  0  0  0  0  0  0  0
   19.1881    6.1283    0.0000 C   0  0  0  0  0  0  0  0  0  0  0  0
   19.9026    5.7158    0.0000 C   0  0  0  0  0  0  0  0  0  0  0  0
   20.6171    6.1283    0.0000 C   0  0  0  0  0  0  0  0  0  0  0  0
   20.6171    6.9533    0.0000 O   0  0  0  0  0  0  0  0  0  0  0  0
   21.3315    5.7158    0.0000 O   0  0  0  0  0  0  0  0  0  0  0  0
   22.0460    6.1283    0.0000 C   0  0  0  0  0  0  0  0  0  0  0  0
  1  2  1  0
  2  3  1  0
  3  4  1  0
  4  5  1  0
  5  6  1  0
  6  7  1  0
  7  8  1  0
  8  9  1  0
  9 10  1  0
 10 11  1  0
 11 12  1  0
 12 13  1  0
 13 14  1  0
 14 15  1  0
 15 16  1  0
 16 17  1  0
 17 18  1  0
 18 19  2  0
 18 20  1  0
 20 21  1  0
M  END
>  <id>  (293) 
3468

>  <casrn>  (293) 
112-61-8

>  <smiles (First)>  (293) 


>  <Molecular weight>  (293) 
298.5038146972656

>  <name>  (293) 
methyl octadecanoate

>  <Outcome>  (293) 
0

>  <Molecule (RDKit Mol) (InChI Code)>  (293) 
InChI=1S/C19H38O2/c1-3-4-5-6-7-8-9-10-11-12-13-14-15-16-17-18-19(20)21-2/h3-18H2,1-2H3

>  <reference>  (293) 
ECHA

>  <molecule_form>  (293) 
A

>  <ID>  (293) 


>  <SMILES>  (293) 
CCCCCCCCCCCCCCCCCC(=O)OC

>  <ROMol>  (293) 
<rdkit.Chem.rdchem.Mol object at 0x0000027F5843AA50>

$$$$

     RDKit          2D

 17 19  0  0  0  0  0  0  0  0999 V2000
   -0.8724   -0.4778    0.0000 C   0  0  0  0  0  0  0  0  0  0  0  0
   -0.1580   -0.0653    0.0000 C   0  0  0  0  0  0  0  0  0  0  0  0
    0.5565   -0.4778    0.0000 C   0  0  0  0  0  0  0  0  0  0  0  0
    0.3502    0.3472    0.0000 C   0  0  0  0  0  0  0  0  0  0  0  0
    0.5565    1.1722    0.0000 C   0  0  0  0  0  0  0  0  0  0  0  0
    1.2710    0.7597    0.0000 C   0  0  0  0  0  0  0  0  0  0  0  0
    1.2710   -0.0653    0.0000 C   0  0  0  0  0  0  0  0  0  0  0  0
    1.9854   -0.4778    0.0000 C   0  0  0  0  0  0  0  0  0  0  0  0
    2.6999   -0.0653    0.0000 C   0  0  0  0  0  0  0  0  0  0  0  0
    3.4144   -0.4778    0.0000 C   0  0  0  0  0  0  0  0  0  0  0  0
    3.4144   -1.3028    0.0000 C   0  0  0  0  0  0  0  0  0  0  0  0
    4.1288   -1.7153    0.0000 O   0  0  0  0  0  0  0  0  0  0  0  0
    2.6999   -1.7153    0.0000 C   0  0  0  0  0  0  0  0  0  0  0  0
    1.9854   -1.3028    0.0000 C   0  0  0  0  0  0  0  0  0  0  0  0
   -0.1580    0.7597    0.0000 C   0  0  0  0  0  0  0  0  0  0  0  0
   -0.5952    1.4593    0.0000 C   0  0  0  0  0  0  0  0  0  0  0  0
   -0.9825    0.7884    0.0000 C   0  0  0  0  0  0  0  0  0  0  0  0
  1  2  1  0
  2  3  1  0
  3  4  1  0
  4  5  1  0
  5  6  1  0
  6  7  1  0
  3  7  1  0
  7  8  1  0
  8  9  1  0
  9 10  1  0
 10 11  1  0
 11 12  1  0
 11 13  1  0
 13 14  1  0
  8 14  1  0
  5 15  1  0
  2 15  1  0
 15 16  1  0
 15 17  1  0
M  END
>  <id>  (294) 
1859

>  <casrn>  (294) 
66068-84-6

>  <smiles (First)>  (294) 


>  <Molecular weight>  (294) 
236.39292907714844

>  <name>  (294) 
4-{5,5,6-trimethylbicyclo[2.2.1]heptan-2-yl}cyclohexan-1-ol

>  <Outcome>  (294) 
0

>  <Molecule (RDKit Mol) (InChI Code)>  (294) 
InChI=1S/C16H28O/c1-10-14-8-12(16(10,2)3)9-15(14)11-4-6-13(17)7-5-11/h10-15,17H,4-9H2,1-3H3

>  <reference>  (294) 
ECHA

>  <molecule_form>  (294) 
A

>  <ID>  (294) 


>  <SMILES>  (294) 
CC1C2CC(CC2C2CCC(O)CC2)C1(C)C

>  <ROMol>  (294) 
<rdkit.Chem.rdchem.Mol object at 0x0000027F583F4C80>

$$$$

     RDKit          2D

 16 15  0  0  0  0  0  0  0  0999 V2000
   -2.3900   -1.0218    0.0000 C   0  0  0  0  0  0  0  0  0  0  0  0
   -1.5798   -0.8659    0.0000 C   0  0  0  0  0  0  0  0  0  0  0  0
   -1.0397   -1.4896    0.0000 N   0  0  0  0  0  0  0  0  0  0  0  0
   -1.3098   -2.2691    0.0000 C   0  0  0  0  0  0  0  0  0  0  0  0
   -2.1199   -2.4250    0.0000 C   0  0  0  0  0  0  0  0  0  0  0  0
   -0.2296   -1.3337    0.0000 C   0  0  0  0  0  0  0  0  0  0  0  0
    0.0404   -0.5541    0.0000 S   0  0  0  0  0  0  0  0  0  0  0  0
    0.3105   -1.9573    0.0000 S   0  0  0  0  0  0  0  0  0  0  0  0
    1.1206   -1.8014    0.0000 S   0  0  0  0  0  0  0  0  0  0  0  0
    1.6607   -2.4250    0.0000 C   0  0  0  0  0  0  0  0  0  0  0  0
    1.3907   -3.2046    0.0000 S   0  0  0  0  0  0  0  0  0  0  0  0
    2.4709   -2.2691    0.0000 N   0  0  0  0  0  0  0  0  0  0  0  0
    3.0109   -2.8928    0.0000 C   0  0  0  0  0  0  0  0  0  0  0  0
    3.8211   -2.7369    0.0000 C   0  0  0  0  0  0  0  0  0  0  0  0
    2.7409   -1.4896    0.0000 C   0  0  0  0  0  0  0  0  0  0  0  0
    3.5510   -1.3337    0.0000 C   0  0  0  0  0  0  0  0  0  0  0  0
  1  2  1  0
  2  3  1  0
  3  4  1  0
  4  5  1  0
  3  6  1  0
  6  7  2  0
  6  8  1  0
  8  9  1  0
  9 10  1  0
 10 11  2  0
 10 12  1  0
 12 13  1  0
 13 14  1  0
 12 15  1  0
 15 16  1  0
M  END
>  <id>  (295) 
352943

>  <casrn>  (295) 
97-77-8

>  <smiles (First)>  (295) 
CCN(CC)C(=S)SSC(=S)N(CC)CC

>  <Molecular weight>  (295) 
296.5391845703125

>  <name>  (295) 
Disulfiram

>  <Outcome>  (295) 
1

>  <Molecule (RDKit Mol) (InChI Code)>  (295) 
InChI=1S/C10H20N2S4/c1-5-11(6-2)9(13)15-16-10(14)12(7-3)8-4/h5-8H2,1-4H3

>  <reference>  (295) 
ToxValDB

>  <molecule_form>  (295) 
not specified

>  <ID>  (295) 


>  <SMILES>  (295) 
CCN(CC)C(=S)SSC(=S)N(CC)CC

>  <ROMol>  (295) 
<rdkit.Chem.rdchem.Mol object at 0x0000027F585E36D0>

$$$$

     RDKit          2D

 12 12  0  0  0  0  0  0  0  0999 V2000
   -0.7362    3.7563    0.0000 C   0  0  0  0  0  0  0  0  0  0  0  0
   -0.0217    3.3438    0.0000 N   0  0  0  0  0  0  0  0  0  0  0  0
   -0.0217    2.5188    0.0000 C   0  0  0  0  0  0  0  0  0  0  0  0
   -0.7362    2.1063    0.0000 C   0  0  0  0  0  0  0  0  0  0  0  0
    0.6928    2.1063    0.0000 C   0  0  0  0  0  0  0  0  0  0  0  0
    1.4072    2.5188    0.0000 O   0  0  0  0  0  0  0  0  0  0  0  0
    0.6928    1.2813    0.0000 C   0  0  0  0  0  0  0  0  0  0  0  0
    1.4072    0.8688    0.0000 C   0  0  0  0  0  0  0  0  0  0  0  0
    1.4072    0.0438    0.0000 C   0  0  0  0  0  0  0  0  0  0  0  0
    0.6928   -0.3687    0.0000 C   0  0  0  0  0  0  0  0  0  0  0  0
   -0.0217    0.0438    0.0000 C   0  0  0  0  0  0  0  0  0  0  0  0
   -0.0217    0.8688    0.0000 C   0  0  0  0  0  0  0  0  0  0  0  0
  1  2  1  0
  2  3  1  0
  3  4  1  0
  3  5  1  0
  5  6  1  0
  5  7  1  0
  7  8  2  0
  8  9  1  0
  9 10  2  0
 10 11  1  0
 11 12  2  0
  7 12  1  0
M  END
>  <id>  (296) 
1348; 1350

>  <casrn>  (296) 
299-42-3

>  <smiles (First)>  (296) 


>  <Molecular weight>  (296) 
165.23220825195312

>  <name>  (296) 
2-(methylamino)-1-phenylpropan-1-ol

>  <Outcome>  (296) 
0

>  <Molecule (RDKit Mol) (InChI Code)>  (296) 
InChI=1S/C10H15NO/c1-8(11-2)10(12)9-6-4-3-5-7-9/h3-8,10-12H,1-2H3

>  <reference>  (296) 
ECHA

>  <molecule_form>  (296) 
A

>  <ID>  (296) 


>  <SMILES>  (296) 
CNC(C)C(O)c1ccccc1

>  <ROMol>  (296) 
<rdkit.Chem.rdchem.Mol object at 0x0000027F58419CF0>

$$$$

     RDKit          2D

  5  4  0  0  0  0  0  0  0  0999 V2000
    1.2814   -0.3676    0.0000 O   0  0  0  0  0  0  0  0  0  0  0  0
    0.4564   -0.3676    0.0000 C   0  0  0  0  0  0  0  0  0  0  0  0
    0.0439   -1.0821    0.0000 O   0  0  0  0  0  0  0  0  0  0  0  0
    0.0439    0.3469    0.0000 C   0  0  0  0  0  0  0  0  0  0  0  0
   -0.7811    0.3469    0.0000 Cl  0  0  0  0  0  0  0  0  0  0  0  0
  1  2  1  0
  2  3  2  0
  2  4  1  0
  4  5  1  0
M  END
>  <id>  (297) 
327162; 261636

>  <casrn>  (297) 
79-11-8

>  <smiles (First)>  (297) 
OC(=O)CCl

>  <Molecular weight>  (297) 
93.99304962158203

>  <name>  (297) 
Chloroacetic acid

>  <Outcome>  (297) 
0

>  <Molecule (RDKit Mol) (InChI Code)>  (297) 
InChI=1S/C2H3ClO2/c3-1-2(4)5/h1H2,(H,4,5)

>  <reference>  (297) 
ToxValDB

>  <molecule_form>  (297) 
not specified

>  <ID>  (297) 


>  <SMILES>  (297) 
O=C(O)CCl

>  <ROMol>  (297) 
<rdkit.Chem.rdchem.Mol object at 0x0000027F6244F970>

$$$$

     RDKit          2D

  3  2  0  0  0  0  0  0  0  0999 V2000
    0.5635   -0.1510    0.0000 N   0  0  0  0  0  0  0  0  0  0  0  0
    0.1510    0.5635    0.0000 C   0  0  0  0  0  0  0  0  0  0  0  0
   -0.6740    0.5635    0.0000 O   0  0  0  0  0  0  0  0  0  0  0  0
  1  2  1  0
  2  3  2  0
M  END
>  <id>  (298) 
314607

>  <casrn>  (298) 
75-12-7

>  <smiles (First)>  (298) 
NC=O

>  <Molecular weight>  (298) 
45.040618896484375

>  <name>  (298) 
Formamide

>  <Outcome>  (298) 
0

>  <Molecule (RDKit Mol) (InChI Code)>  (298) 
InChI=1S/CH3NO/c2-1-3/h1H,(H2,2,3)

>  <reference>  (298) 
ToxValDB

>  <molecule_form>  (298) 
not specified

>  <ID>  (298) 


>  <SMILES>  (298) 
NC=O

>  <ROMol>  (298) 
<rdkit.Chem.rdchem.Mol object at 0x0000027F589050B0>

$$$$

     RDKit          2D

 10  9  0  0  0  0  0  0  0  0999 V2000
    0.1105   -2.8875    0.0000 C   0  0  0  0  0  0  0  0  0  0  0  0
    0.1105   -2.0625    0.0000 C   0  0  0  0  0  0  0  0  0  0  0  0
    0.9355   -2.0625    0.0000 C   0  0  0  0  0  0  0  0  0  0  0  0
   -0.7145   -2.0625    0.0000 C   0  0  0  0  0  0  0  0  0  0  0  0
    0.1105   -1.2375    0.0000 O   0  0  0  0  0  0  0  0  0  0  0  0
    0.8250   -0.8250    0.0000 O   0  0  0  0  0  0  0  0  0  0  0  0
    0.8250   -0.0000    0.0000 C   0  0  0  0  0  0  0  0  0  0  0  0
    0.8250    0.8250    0.0000 C   0  0  0  0  0  0  0  0  0  0  0  0
    1.6500   -0.0000    0.0000 C   0  0  0  0  0  0  0  0  0  0  0  0
   -0.0000   -0.0000    0.0000 C   0  0  0  0  0  0  0  0  0  0  0  0
  1  2  1  0
  2  3  1  0
  2  4  1  0
  2  5  1  0
  5  6  1  0
  6  7  1  0
  7  8  1  0
  7  9  1  0
  7 10  1  0
M  END
>  <id>  (299) 
1358

>  <casrn>  (299) 
110-05-4

>  <smiles (First)>  (299) 


>  <Molecular weight>  (299) 
146.22732543945312

>  <name>  (299) 
2-(tert-butylperoxy)-2-methylpropane

>  <Outcome>  (299) 
0

>  <Molecule (RDKit Mol) (InChI Code)>  (299) 
InChI=1S/C8H18O2/c1-7(2,3)9-10-8(4,5)6/h1-6H3

>  <reference>  (299) 
ECHA

>  <molecule_form>  (299) 
V

>  <ID>  (299) 


>  <SMILES>  (299) 
CC(C)(C)OOC(C)(C)C

>  <ROMol>  (299) 
<rdkit.Chem.rdchem.Mol object at 0x0000027F624B16D0>

$$$$

     RDKit          2D

 11 11  0  0  0  0  0  0  0  0999 V2000
    1.4307    2.4760    0.0000 O   0  0  0  0  0  0  0  0  0  0  0  0
    0.7163    2.0635    0.0000 C   0  0  0  0  0  0  0  0  0  0  0  0
    0.0018    2.4760    0.0000 C   0  0  0  0  0  0  0  0  0  0  0  0
    0.0018    3.3010    0.0000 Cl  0  0  0  0  0  0  0  0  0  0  0  0
    0.7163    1.2385    0.0000 C   0  0  0  0  0  0  0  0  0  0  0  0
    1.4307    0.8260    0.0000 C   0  0  0  0  0  0  0  0  0  0  0  0
    1.4307    0.0010    0.0000 C   0  0  0  0  0  0  0  0  0  0  0  0
    0.7163   -0.4115    0.0000 C   0  0  0  0  0  0  0  0  0  0  0  0
    0.7163   -1.2365    0.0000 F   0  0  0  0  0  0  0  0  0  0  0  0
    0.0018    0.0010    0.0000 C   0  0  0  0  0  0  0  0  0  0  0  0
    0.0018    0.8260    0.0000 C   0  0  0  0  0  0  0  0  0  0  0  0
  1  2  2  0
  2  3  1  0
  3  4  1  0
  2  5  1  0
  5  6  2  0
  6  7  1  0
  7  8  2  0
  8  9  1  0
  8 10  1  0
 10 11  2  0
  5 11  1  0
M  END
>  <id>  (300) 
1428

>  <casrn>  (300) 
456-04-2

>  <smiles (First)>  (300) 


>  <Molecular weight>  (300) 
172.58404541015625

>  <name>  (300) 
2-chloro-1-(4-fluorophenyl)ethanone

>  <Outcome>  (300) 
1

>  <Molecule (RDKit Mol) (InChI Code)>  (300) 
InChI=1S/C8H6ClFO/c9-5-8(11)6-1-3-7(10)4-2-6/h1-4H,5H2

>  <reference>  (300) 
ECHA

>  <molecule_form>  (300) 
V

>  <ID>  (300) 


>  <SMILES>  (300) 
O=C(CCl)c1ccc(F)cc1

>  <ROMol>  (300) 
<rdkit.Chem.rdchem.Mol object at 0x0000027F584D5040>

$$$$

     RDKit          2D

  9  8  0  0  0  0  0  0  0  0999 V2000
    2.5385    0.6265    0.0000 C   0  0  0  0  0  0  0  0  0  0  0  0
    1.8240    0.2140    0.0000 O   0  0  0  0  0  0  0  0  0  0  0  0
    1.1096    0.6265    0.0000 Si  0  0  0  0  0  4  0  0  0  0  0  0
    0.3951    1.0390    0.0000 O   0  0  0  0  0  0  0  0  0  0  0  0
   -0.3194    0.6265    0.0000 C   0  0  0  0  0  0  0  0  0  0  0  0
    1.5221    1.3410    0.0000 O   0  0  0  0  0  0  0  0  0  0  0  0
    1.1096    2.0555    0.0000 C   0  0  0  0  0  0  0  0  0  0  0  0
    0.6971   -0.0879    0.0000 O   0  0  0  0  0  0  0  0  0  0  0  0
   -0.1279   -0.0879    0.0000 C   0  0  0  0  0  0  0  0  0  0  0  0
  1  2  1  0
  2  3  1  0
  3  4  1  0
  4  5  1  0
  3  6  1  0
  6  7  1  0
  3  8  1  0
  8  9  1  0
M  END
>  <id>  (301) 
3978

>  <casrn>  (301) 
681-84-5

>  <smiles (First)>  (301) 


>  <Molecular weight>  (301) 
152.22117614746094

>  <name>  (301) 
tetramethyl silicate

>  <Outcome>  (301) 
1

>  <Molecule (RDKit Mol) (InChI Code)>  (301) 
InChI=1S/C4H12O4Si/c1-5-9(6-2,7-3)8-4/h1-4H3

>  <reference>  (301) 
ECHA

>  <molecule_form>  (301) 
V

>  <ID>  (301) 


>  <SMILES>  (301) 
CO[Si](OC)(OC)OC

>  <ROMol>  (301) 
<rdkit.Chem.rdchem.Mol object at 0x0000027F58408510>

$$$$

     RDKit          2D

 43 49  0  0  0  0  0  0  0  0999 V2000
    1.9911   -1.2533    0.0000 C   0  0  0  0  0  0  0  0  0  0  0  0
    2.8057   -1.3839    0.0000 C   0  0  0  0  0  0  0  0  0  0  0  0
    2.7929   -0.5590    0.0000 C   0  0  0  0  0  0  0  0  0  0  0  0
    3.5008   -0.1354    0.0000 O   0  0  0  0  0  0  0  0  0  0  0  0
    3.4880    0.6895    0.0000 C   0  0  0  0  0  0  0  0  0  0  0  0
    2.7672    1.0908    0.0000 O   0  0  0  0  0  0  0  0  0  0  0  0
    4.1959    1.1131    0.0000 C   0  0  0  0  0  0  0  0  0  0  0  0
    4.5972    1.8339    0.0000 C   0  0  0  0  0  0  0  0  0  0  0  0
    5.0208    1.1259    0.0000 C   0  0  0  0  0  0  0  0  0  0  0  0
    2.5357   -2.1635    0.0000 C   0  0  0  0  0  0  0  0  0  0  0  0
    1.7256   -2.3194    0.0000 O   0  0  0  0  0  0  0  0  0  0  0  0
    1.4555   -3.0989    0.0000 C   0  0  0  0  0  0  0  0  0  0  0  0
    1.9956   -3.7226    0.0000 O   0  0  0  0  0  0  0  0  0  0  0  0
    0.6454   -3.2548    0.0000 C   0  0  0  0  0  0  0  0  0  0  0  0
    0.0217   -3.7949    0.0000 C   0  0  0  0  0  0  0  0  0  0  0  0
   -0.1342   -2.9848    0.0000 C   0  0  0  0  0  0  0  0  0  0  0  0
    3.0758   -2.7871    0.0000 C   0  0  0  0  0  0  0  0  0  0  0  0
    3.8859   -2.6312    0.0000 C   0  0  0  0  0  0  0  0  0  0  0  0
    4.1560   -1.8516    0.0000 C   0  0  0  0  0  0  0  0  0  0  0  0
    4.6961   -2.4753    0.0000 C   0  0  0  0  0  0  0  0  0  0  0  0
    3.6159   -1.2280    0.0000 C   0  0  0  0  0  0  0  0  0  0  0  0
    3.8859   -0.4485    0.0000 C   0  0  0  0  0  0  0  0  0  0  0  0
    4.6961   -0.2925    0.0000 C   0  0  0  0  0  0  0  0  0  0  0  0
    4.9661    0.4870    0.0000 O   0  0  0  0  0  0  0  0  0  0  0  0
    5.2361   -0.9162    0.0000 C   0  0  0  0  0  0  0  0  0  0  0  0
    5.5062   -0.1366    0.0000 C   0  0  0  0  0  0  0  0  0  0  0  0
    6.0463   -0.7603    0.0000 O   0  0  0  0  0  0  0  0  0  0  0  0
    6.5864   -1.3839    0.0000 C   0  0  0  0  0  0  0  0  0  0  0  0
    7.3965   -1.2280    0.0000 C   0  0  0  0  0  0  0  0  0  0  0  0
    7.9366   -1.8516    0.0000 C   0  0  0  0  0  0  0  0  0  0  0  0
    8.7467   -1.6957    0.0000 C   0  0  0  0  0  0  0  0  0  0  0  0
    9.0168   -0.9162    0.0000 C   0  0  0  0  0  0  0  0  0  0  0  0
    9.8269   -0.7603    0.0000 C   0  0  0  0  0  0  0  0  0  0  0  0
   10.3670   -1.3839    0.0000 C   0  0  0  0  0  0  0  0  0  0  0  0
   10.0970   -2.1635    0.0000 N   0  0  0  0  0  0  0  0  0  0  0  0
    9.2868   -2.3194    0.0000 C   0  0  0  0  0  0  0  0  0  0  0  0
    7.6665   -2.6312    0.0000 O   0  0  0  0  0  0  0  0  0  0  0  0
    6.8564   -2.7871    0.0000 C   0  0  0  0  0  0  0  0  0  0  0  0
    6.5864   -3.5667    0.0000 O   0  0  0  0  0  0  0  0  0  0  0  0
    6.3163   -2.1635    0.0000 C   0  0  0  0  0  0  0  0  0  0  0  0
    5.5062   -2.3194    0.0000 C   0  0  0  0  0  0  0  0  0  0  0  0
    5.2361   -3.0989    0.0000 O   0  0  0  0  0  0  0  0  0  0  0  0
    4.9661   -1.6957    0.0000 C   0  0  0  0  0  0  0  0  0  0  0  0
  1  2  1  0
  2  3  1  0
  3  4  1  0
  4  5  1  0
  5  6  2  0
  5  7  1  0
  7  8  1  0
  8  9  1  0
  7  9  1  0
  2 10  1  0
 10 11  1  0
 11 12  1  0
 12 13  2  0
 12 14  1  0
 14 15  1  0
 15 16  1  0
 14 16  1  0
 10 17  1  0
 17 18  1  0
 18 19  1  0
 19 20  1  0
 19 21  1  0
  2 21  1  0
 21 22  1  0
 22 23  1  0
 23 24  1  0
 23 25  1  0
 25 26  1  0
 25 27  1  0
 27 28  1  0
 28 29  1  0
 29 30  2  0
 30 31  1  0
 31 32  2  0
 32 33  1  0
 33 34  2  0
 34 35  1  0
 35 36  2  0
 31 36  1  0
 30 37  1  0
 37 38  1  0
 38 39  2  0
 38 40  1  0
 28 40  2  0
 40 41  1  0
 41 42  1  0
 41 43  1  0
 19 43  1  0
 25 43  1  0
M  END
>  <id>  (302) 
4319

>  <casrn>  (302) 
915972-17-7

>  <smiles (First)>  (302) 


>  <Molecular weight>  (302) 
593.6640625

>  <name>  (302) 
unnamed [915972-17-7]

>  <Outcome>  (302) 
0

>  <Molecule (RDKit Mol) (InChI Code)>  (302) 
InChI=1S/C33H39NO9/c1-31-11-10-24(42-29(38)18-8-9-18)32(2,16-40-28(37)17-6-7-17)22(31)14-23(35)33(3)27(31)26(36)25-21(43-33)13-20(41-30(25)39)19-5-4-12-34-15-19/h4-5,12-13,15,17-18,22-24,26-27,35-36H,6-11,14,16H2,1-3H3

>  <reference>  (302) 
ECHA

>  <molecule_form>  (302) 
A

>  <ID>  (302) 


>  <SMILES>  (302) 
CC1(COC(=O)C2CC2)C(OC(=O)C2CC2)CCC2(C)C1CC(O)C1(C)Oc3cc(-c4cccnc4)oc(=O)c3C(O)C21

>  <ROMol>  (302) 
<rdkit.Chem.rdchem.Mol object at 0x0000027F58408DD0>

$$$$

     RDKit          2D

  9  8  0  0  0  0  0  0  0  0999 V2000
   -0.2861    0.7031    0.0000 C   0  0  0  0  0  0  0  0  0  0  0  0
    0.4284    1.1156    0.0000 C   0  0  0  0  0  0  0  0  0  0  0  0
    1.1428    0.7031    0.0000 C   0  0  0  0  0  0  0  0  0  0  0  0
    1.1428   -0.1219    0.0000 C   0  0  0  0  0  0  0  0  0  0  0  0
    1.8573    1.1156    0.0000 C   0  0  0  0  0  0  0  0  0  0  0  0
    1.8573    1.9406    0.0000 N   0  0  0  0  0  0  0  0  0  0  0  0
    2.5718    0.7031    0.0000 C   0  0  0  0  0  0  0  0  0  0  0  0
    3.2862    1.1156    0.0000 O   0  0  0  0  0  0  0  0  0  0  0  0
    2.5718   -0.1219    0.0000 O   0  0  0  0  0  0  0  0  0  0  0  0
  1  2  1  0
  2  3  1  0
  3  4  1  0
  3  5  1  0
  5  6  1  0
  5  7  1  0
  7  8  2  0
  7  9  1  0
M  END
>  <id>  (303) 
183

>  <casrn>  (303) 
73-32-5

>  <smiles (First)>  (303) 


>  <Molecular weight>  (303) 
131.1729278564453

>  <name>  (303) 
(2S)-2-amino-3-methylpentanoic acid

>  <Outcome>  (303) 
0

>  <Molecule (RDKit Mol) (InChI Code)>  (303) 
InChI=1S/C6H13NO2/c1-3-4(2)5(7)6(8)9/h4-5H,3,7H2,1-2H3,(H,8,9)

>  <reference>  (303) 
ECHA

>  <molecule_form>  (303) 
A

>  <ID>  (303) 


>  <SMILES>  (303) 
CCC(C)C(N)C(=O)O

>  <ROMol>  (303) 
<rdkit.Chem.rdchem.Mol object at 0x0000027F584DEDD0>

$$$$

     RDKit          2D

 12 11  0  0  0  0  0  0  0  0999 V2000
    4.3216   -2.3703    0.0000 C   0  0  0  0  0  0  0  0  0  0  0  0
    3.4966   -2.3703    0.0000 C   0  0  0  0  0  0  0  0  0  0  0  0
    3.0841   -1.6558    0.0000 C   0  0  0  0  0  0  0  0  0  0  0  0
    3.7986   -1.2433    0.0000 C   0  0  0  0  0  0  0  0  0  0  0  0
    2.3696   -2.0683    0.0000 C   0  0  0  0  0  0  0  0  0  0  0  0
    2.6716   -0.9413    0.0000 O   0  0  0  0  0  0  0  0  0  0  0  0
    1.8466   -0.9413    0.0000 O   0  0  0  0  0  0  0  0  0  0  0  0
    1.4341   -0.2269    0.0000 C   0  0  0  0  0  0  0  0  0  0  0  0
    2.1486    0.1856    0.0000 C   0  0  0  0  0  0  0  0  0  0  0  0
    0.7196   -0.6394    0.0000 C   0  0  0  0  0  0  0  0  0  0  0  0
    1.0216    0.4876    0.0000 C   0  0  0  0  0  0  0  0  0  0  0  0
    0.1966    0.4876    0.0000 C   0  0  0  0  0  0  0  0  0  0  0  0
  1  2  1  0
  2  3  1  0
  3  4  1  0
  3  5  1  0
  3  6  1  0
  6  7  1  0
  7  8  1  0
  8  9  1  0
  8 10  1  0
  8 11  1  0
 11 12  1  0
M  END
>  <id>  (304) 
199989

>  <casrn>  (304) 
10508-09-5

>  <smiles (First)>  (304) 
CCC(C)(C)OOC(C)(C)CC

>  <Molecular weight>  (304) 
174.28048706054688

>  <name>  (304) 
Bis(2-methylbutan-2-yl) peroxide

>  <Outcome>  (304) 
0

>  <Molecule (RDKit Mol) (InChI Code)>  (304) 
InChI=1S/C10H22O2/c1-7-9(3,4)11-12-10(5,6)8-2/h7-8H2,1-6H3

>  <reference>  (304) 
ToxValDB

>  <molecule_form>  (304) 
not specified

>  <ID>  (304) 


>  <SMILES>  (304) 
CCC(C)(C)OOC(C)(C)CC

>  <ROMol>  (304) 
<rdkit.Chem.rdchem.Mol object at 0x0000027F585CB120>

$$$$

     RDKit          2D

 15 14  0  0  0  0  0  0  0  0999 V2000
   -1.4944    1.0258    0.0000 C   0  0  0  0  0  0  0  0  0  0  0  0
   -0.6694    1.0258    0.0000 C   0  0  0  0  0  0  0  0  0  0  0  0
   -0.2569    0.3113    0.0000 C   0  0  0  0  0  0  0  0  0  0  0  0
   -0.2569    1.7403    0.0000 C   0  0  0  0  0  0  0  0  0  0  0  0
    0.5681    1.7403    0.0000 N   0  0  0  0  0  0  0  0  0  0  0  0
    0.9806    2.4547    0.0000 C   0  0  0  0  0  0  0  0  0  0  0  0
    0.5681    3.1692    0.0000 O   0  0  0  0  0  0  0  0  0  0  0  0
    1.8056    2.4547    0.0000 O   0  0  0  0  0  0  0  0  0  0  0  0
    2.2181    3.1692    0.0000 C   0  0  0  0  0  0  0  0  0  0  0  0
    2.6306    3.8837    0.0000 C   0  0  0  0  0  0  0  0  0  0  0  0
    2.9326    2.7567    0.0000 C   0  0  0  0  0  0  0  0  0  0  0  0
    1.5036    3.5817    0.0000 C   0  0  0  0  0  0  0  0  0  0  0  0
   -0.6694    2.4547    0.0000 C   0  0  0  0  0  0  0  0  0  0  0  0
   -0.2569    3.1692    0.0000 O   0  0  0  0  0  0  0  0  0  0  0  0
   -1.4944    2.4547    0.0000 O   0  0  0  0  0  0  0  0  0  0  0  0
  1  2  1  0
  2  3  1  0
  2  4  1  0
  4  5  1  0
  5  6  1  0
  6  7  2  0
  6  8  1  0
  8  9  1  0
  9 10  1  0
  9 11  1  0
  9 12  1  0
  4 13  1  0
 13 14  1  0
 13 15  2  0
M  END
>  <id>  (305) 
233724

>  <casrn>  (305) 
13734-41-3

>  <smiles (First)>  (305) 
CC(C)C(NC(=O)OC(C)(C)C)C(O)=O

>  <Molecular weight>  (305) 
217.2621612548828

>  <name>  (305) 
L-Valine, N-[(1,1-dimethylethoxy)carbonyl]-

>  <Outcome>  (305) 
1

>  <Molecule (RDKit Mol) (InChI Code)>  (305) 
InChI=1S/C10H19NO4/c1-6(2)7(8(12)13)11-9(14)15-10(3,4)5/h6-7H,1-5H3,(H,11,14)(H,12,13)

>  <reference>  (305) 
ToxValDB

>  <molecule_form>  (305) 
not specified

>  <ID>  (305) 


>  <SMILES>  (305) 
CC(C)C(NC(=O)OC(C)(C)C)C(=O)O

>  <ROMol>  (305) 
<rdkit.Chem.rdchem.Mol object at 0x0000027F58444AC0>

$$$$

     RDKit          2D

 16 15  0  0  0  0  0  0  0  0999 V2000
    5.4237    4.0861    0.0000 C   0  0  0  0  0  0  0  0  0  0  0  0
    6.1382    3.6736    0.0000 C   0  0  0  0  0  0  0  0  0  0  0  0
    6.8527    4.0861    0.0000 C   0  0  0  0  0  0  0  0  0  0  0  0
    6.8527    4.9111    0.0000 O   0  0  0  0  0  0  0  0  0  0  0  0
    7.5671    3.6736    0.0000 O   0  0  0  0  0  0  0  0  0  0  0  0
    8.2816    4.0861    0.0000 C   0  0  0  0  0  0  0  0  0  0  0  0
    8.9961    3.6736    0.0000 C   0  0  0  0  0  0  0  0  0  0  0  0
    9.7105    4.0861    0.0000 C   0  0  0  0  0  0  0  0  0  0  0  0
    9.7105    4.9111    0.0000 C   0  0  0  0  0  0  0  0  0  0  0  0
   10.4250    3.6736    0.0000 C   0  0  0  0  0  0  0  0  0  0  0  0
   11.1395    4.0861    0.0000 C   0  0  0  0  0  0  0  0  0  0  0  0
   11.8540    3.6736    0.0000 O   0  0  0  0  0  0  0  0  0  0  0  0
   12.5684    4.0861    0.0000 C   0  0  0  0  0  0  0  0  0  0  0  0
   12.5684    4.9111    0.0000 O   0  0  0  0  0  0  0  0  0  0  0  0
   13.2829    3.6736    0.0000 C   0  0  0  0  0  0  0  0  0  0  0  0
   13.9974    4.0861    0.0000 C   0  0  0  0  0  0  0  0  0  0  0  0
  1  2  2  0
  2  3  1  0
  3  4  2  0
  3  5  1  0
  5  6  1  0
  6  7  1  0
  7  8  1  0
  8  9  1  0
  8 10  1  0
 10 11  1  0
 11 12  1  0
 12 13  1  0
 13 14  2  0
 13 15  1  0
 15 16  2  0
M  END
>  <id>  (306) 
1782

>  <casrn>  (306) 
64194-22-5

>  <smiles (First)>  (306) 


>  <Molecular weight>  (306) 
226.2689208984375

>  <name>  (306) 
3-methyl-5-(prop-2-enoyloxy)pentyl prop-2-enoate

>  <Outcome>  (306) 
1

>  <Molecule (RDKit Mol) (InChI Code)>  (306) 
InChI=1S/C12H18O4/c1-4-11(13)15-8-6-10(3)7-9-16-12(14)5-2/h4-5,10H,1-2,6-9H2,3H3

>  <reference>  (306) 
ECHA

>  <molecule_form>  (306) 
A

>  <ID>  (306) 


>  <SMILES>  (306) 
C=CC(=O)OCCC(C)CCOC(=O)C=C

>  <ROMol>  (306) 
<rdkit.Chem.rdchem.Mol object at 0x0000027F584289E0>

$$$$

     RDKit          2D

  8  8  0  0  0  0  0  0  0  0999 V2000
    1.3494   -2.2403    0.0000 O   0  0  0  0  0  0  0  0  0  0  0  0
    0.8645   -1.5729    0.0000 C   0  0  0  0  0  0  0  0  0  0  0  0
    0.0395   -1.5729    0.0000 O   0  0  0  0  0  0  0  0  0  0  0  0
   -0.2154   -0.7882    0.0000 C   0  0  0  0  0  0  0  0  0  0  0  0
    0.4520   -0.3033    0.0000 C   0  0  0  0  0  0  0  0  0  0  0  0
    0.4520    0.5217    0.0000 C   0  0  0  0  0  0  0  0  0  0  0  0
   -0.2625    0.9342    0.0000 O   0  0  0  0  0  0  0  0  0  0  0  0
    1.1194   -0.7882    0.0000 O   0  0  0  0  0  0  0  0  0  0  0  0
  1  2  2  0
  2  3  1  0
  3  4  1  0
  4  5  1  0
  5  6  1  0
  6  7  1  0
  5  8  1  0
  2  8  1  0
M  END
>  <id>  (307) 
1817

>  <casrn>  (307) 
931-40-8

>  <smiles (First)>  (307) 


>  <Molecular weight>  (307) 
118.08804321289062

>  <name>  (307) 
4-(hydroxymethyl)-1,3-dioxolan-2-one

>  <Outcome>  (307) 
0

>  <Molecule (RDKit Mol) (InChI Code)>  (307) 
InChI=1S/C4H6O4/c5-1-3-2-7-4(6)8-3/h3,5H,1-2H2

>  <reference>  (307) 
ECHA

>  <molecule_form>  (307) 
A

>  <ID>  (307) 


>  <SMILES>  (307) 
O=C1OCC(CO)O1

>  <ROMol>  (307) 
<rdkit.Chem.rdchem.Mol object at 0x0000027F584190B0>

$$$$

     RDKit          2D

 10 10  0  0  0  0  0  0  0  0999 V2000
    0.8037    2.0913    0.0000 C   0  0  0  0  0  0  0  0  0  0  0  0
    0.8037    1.2663    0.0000 C   0  0  0  0  0  0  0  0  0  0  0  0
    1.5182    0.8538    0.0000 O   0  0  0  0  0  0  0  0  0  0  0  0
    1.5182    0.0288    0.0000 C   0  0  0  0  0  0  0  0  0  0  0  0
    2.2326   -0.3837    0.0000 O   0  0  0  0  0  0  0  0  0  0  0  0
    0.8037   -0.3837    0.0000 C   0  0  0  0  0  0  0  0  0  0  0  0
    0.8037   -1.2087    0.0000 C   0  0  0  0  0  0  0  0  0  0  0  0
    0.0892    0.0288    0.0000 O   0  0  0  0  0  0  0  0  0  0  0  0
    0.0892    0.8538    0.0000 C   0  0  0  0  0  0  0  0  0  0  0  0
   -0.6252    1.2663    0.0000 O   0  0  0  0  0  0  0  0  0  0  0  0
  1  2  1  0
  2  3  1  0
  3  4  1  0
  4  5  2  0
  4  6  1  0
  6  7  1  0
  6  8  1  0
  8  9  1  0
  2  9  1  0
  9 10  2  0
M  END
>  <id>  (308) 
1739

>  <casrn>  (308) 
4511-42-6

>  <smiles (First)>  (308) 


>  <Molecular weight>  (308) 
144.1253204345703

>  <name>  (308) 
3,6-dimethyl-1,4-dioxane-2,5-dione

>  <Outcome>  (308) 
0

>  <Molecule (RDKit Mol) (InChI Code)>  (308) 
InChI=1S/C6H8O4/c1-3-5(7)10-4(2)6(8)9-3/h3-4H,1-2H3

>  <reference>  (308) 
ECHA

>  <molecule_form>  (308) 
A

>  <ID>  (308) 


>  <SMILES>  (308) 
CC1OC(=O)C(C)OC1=O

>  <ROMol>  (308) 
<rdkit.Chem.rdchem.Mol object at 0x0000027F58419C10>

$$$$

     RDKit          2D

  6  6  0  0  0  0  0  0  0  0999 V2000
    0.7334    2.0578    0.0000 N   0  0  0  0  0  0  0  0  0  0  0  0
    0.7334    1.2328    0.0000 C   0  0  0  0  0  0  0  0  0  0  0  0
    1.4008    0.7479    0.0000 C   0  0  0  0  0  0  0  0  0  0  0  0
    1.1459   -0.0367    0.0000 C   0  0  0  0  0  0  0  0  0  0  0  0
    0.3209   -0.0367    0.0000 C   0  0  0  0  0  0  0  0  0  0  0  0
    0.0659    0.7479    0.0000 C   0  0  0  0  0  0  0  0  0  0  0  0
  1  2  1  0
  2  3  1  0
  3  4  1  0
  4  5  1  0
  5  6  1  0
  2  6  1  0
M  END
>  <id>  (309) 
2842

>  <casrn>  (309) 
1003-03-8

>  <smiles (First)>  (309) 


>  <Molecular weight>  (309) 
85.14753723144531

>  <name>  (309) 
cyclopentanamine

>  <Outcome>  (309) 
1

>  <Molecule (RDKit Mol) (InChI Code)>  (309) 
InChI=1S/C5H11N/c6-5-3-1-2-4-5/h5H,1-4,6H2

>  <reference>  (309) 
ECHA

>  <molecule_form>  (309) 
V

>  <ID>  (309) 


>  <SMILES>  (309) 
NC1CCCC1

>  <ROMol>  (309) 
<rdkit.Chem.rdchem.Mol object at 0x0000027F624B1190>

$$$$

     RDKit          2D

 15 16  0  0  0  0  0  0  0  0999 V2000
    0.8838   -2.1500    0.0000 O   0  0  0  0  0  0  0  0  0  0  0  0
    1.1387   -1.3654    0.0000 C   0  0  0  0  0  0  0  0  0  0  0  0
    0.6538   -0.6979    0.0000 O   0  0  0  0  0  0  0  0  0  0  0  0
    1.1387   -0.0305    0.0000 C   0  0  0  0  0  0  0  0  0  0  0  0
    0.8838    0.7541    0.0000 O   0  0  0  0  0  0  0  0  0  0  0  0
    1.9233   -0.2854    0.0000 C   0  0  0  0  0  0  0  0  0  0  0  0
    2.6378    0.1271    0.0000 C   0  0  0  0  0  0  0  0  0  0  0  0
    2.6378    0.9521    0.0000 Br  0  0  0  0  0  0  0  0  0  0  0  0
    3.3523   -0.2854    0.0000 C   0  0  0  0  0  0  0  0  0  0  0  0
    4.0668    0.1271    0.0000 Br  0  0  0  0  0  0  0  0  0  0  0  0
    3.3523   -1.1104    0.0000 C   0  0  0  0  0  0  0  0  0  0  0  0
    4.0668   -1.5229    0.0000 Br  0  0  0  0  0  0  0  0  0  0  0  0
    2.6378   -1.5229    0.0000 C   0  0  0  0  0  0  0  0  0  0  0  0
    2.6378   -2.3479    0.0000 Br  0  0  0  0  0  0  0  0  0  0  0  0
    1.9233   -1.1104    0.0000 C   0  0  0  0  0  0  0  0  0  0  0  0
  1  2  2  0
  2  3  1  0
  3  4  1  0
  4  5  2  0
  4  6  1  0
  6  7  2  0
  7  8  1  0
  7  9  1  0
  9 10  1  0
  9 11  2  0
 11 12  1  0
 11 13  1  0
 13 14  1  0
 13 15  2  0
  6 15  1  0
  2 15  1  0
M  END
>  <id>  (310) 
3926

>  <casrn>  (310) 
632-79-1

>  <smiles (First)>  (310) 


>  <Molecular weight>  (310) 
463.6997985839844

>  <name>  (310) 
tetrabromo-1,3-dihydro-2-benzofuran-1,3-dione

>  <Outcome>  (310) 
0

>  <Molecule (RDKit Mol) (InChI Code)>  (310) 
InChI=1S/C8Br4O3/c9-3-1-2(8(14)15-7(1)13)4(10)6(12)5(3)11

>  <reference>  (310) 
ECHA

>  <molecule_form>  (310) 
A

>  <ID>  (310) 


>  <SMILES>  (310) 
O=C1OC(=O)c2c(Br)c(Br)c(Br)c(Br)c21

>  <ROMol>  (310) 
<rdkit.Chem.rdchem.Mol object at 0x0000027F5846EEB0>

$$$$

     RDKit          2D

 22 21  0  0  0  0  0  0  0  0999 V2000
    9.7086    6.4308    0.0000 C   0  0  0  0  0  0  0  0  0  0  0  0
   10.4230    6.8433    0.0000 C   0  0  0  0  0  0  0  0  0  0  0  0
   11.1375    6.4308    0.0000 C   0  0  0  0  0  0  0  0  0  0  0  0
   11.8520    6.8433    0.0000 C   0  0  0  0  0  0  0  0  0  0  0  0
   12.5664    6.4308    0.0000 C   0  0  0  0  0  0  0  0  0  0  0  0
   13.2809    6.8433    0.0000 C   0  0  0  0  0  0  0  0  0  0  0  0
   13.9954    6.4308    0.0000 C   0  0  0  0  0  0  0  0  0  0  0  0
   14.7099    6.8433    0.0000 C   0  0  0  0  0  0  0  0  0  0  0  0
   15.4243    6.4308    0.0000 C   0  0  0  0  0  0  0  0  0  0  0  0
   16.1388    6.8433    0.0000 C   0  0  0  0  0  0  0  0  0  0  0  0
   16.8533    6.4308    0.0000 C   0  0  0  0  0  0  0  0  0  0  0  0
   17.5677    6.8433    0.0000 C   0  0  0  0  0  0  0  0  0  0  0  0
   18.2822    6.4308    0.0000 C   0  0  0  0  0  0  0  0  0  0  0  0
   18.9967    6.8433    0.0000 C   0  0  0  0  0  0  0  0  0  0  0  0
   19.7112    6.4308    0.0000 C   0  0  0  0  0  0  0  0  0  0  0  0
   20.4256    6.8433    0.0000 C   0  0  0  0  0  0  0  0  0  0  0  0
   21.1401    6.4308    0.0000 C   0  0  0  0  0  0  0  0  0  0  0  0
   21.8546    6.8433    0.0000 C   0  0  0  0  0  0  0  0  0  0  0  0
   22.5690    6.4308    0.0000 C   0  0  0  0  0  0  0  0  0  0  0  0
   23.2835    6.8433    0.0000 C   0  0  0  0  0  0  0  0  0  0  0  0
   23.9980    6.4308    0.0000 C   0  0  0  0  0  0  0  0  0  0  0  0
   24.7124    6.8433    0.0000 C   0  0  0  0  0  0  0  0  0  0  0  0
  1  2  2  0
  2  3  1  0
  3  4  1  0
  4  5  1  0
  5  6  1  0
  6  7  1  0
  7  8  1  0
  8  9  1  0
  9 10  1  0
 10 11  1  0
 11 12  1  0
 12 13  1  0
 13 14  1  0
 14 15  1  0
 15 16  1  0
 16 17  1  0
 17 18  1  0
 18 19  1  0
 19 20  1  0
 20 21  1  0
 21 22  1  0
M  END
>  <id>  (311) 
1956; 1952

>  <casrn>  (311) 
93924-10-8

>  <smiles (First)>  (311) 


>  <Molecular weight>  (311) 
308.58477783203125

>  <name>  (311) 
Alkenes, C20-24 ??-

>  <Outcome>  (311) 
0

>  <Molecule (RDKit Mol) (InChI Code)>  (311) 
InChI=1S/C22H44/c1-3-5-7-9-11-13-15-17-19-21-22-20-18-16-14-12-10-8-6-4-2/h3H,1,4-22H2,2H3

>  <reference>  (311) 
ECHA

>  <molecule_form>  (311) 
V

>  <ID>  (311) 


>  <SMILES>  (311) 
C=CCCCCCCCCCCCCCCCCCCCC

>  <ROMol>  (311) 
<rdkit.Chem.rdchem.Mol object at 0x0000027F585E2580>

$$$$

     RDKit          2D

 28 27  0  0  0  0  0  0  0  0999 V2000
   -3.7023    0.1808    0.0000 C   0  0  0  0  0  0  0  0  0  0  0  0
   -2.9879    0.5933    0.0000 C   0  0  0  0  0  0  0  0  0  0  0  0
   -2.2734    0.1808    0.0000 O   0  0  0  0  0  0  0  0  0  0  0  0
   -1.5589    0.5933    0.0000 Si  0  0  0  0  0  4  0  0  0  0  0  0
   -0.8445    1.0058    0.0000 C   0  0  0  0  0  0  0  0  0  0  0  0
   -0.1300    0.5933    0.0000 C   0  0  0  0  0  0  0  0  0  0  0  0
    0.5845    1.0058    0.0000 C   0  0  0  0  0  0  0  0  0  0  0  0
    1.2990    0.5933    0.0000 S   0  0  0  0  0  0  0  0  0  0  0  0
    2.0134    1.0058    0.0000 S   0  0  0  0  0  0  0  0  0  0  0  0
    2.7279    0.5933    0.0000 C   0  0  0  0  0  0  0  0  0  0  0  0
    3.4424    1.0058    0.0000 C   0  0  0  0  0  0  0  0  0  0  0  0
    4.1568    0.5933    0.0000 C   0  0  0  0  0  0  0  0  0  0  0  0
    4.8713    1.0058    0.0000 Si  0  0  0  0  0  4  0  0  0  0  0  0
    5.5858    1.4183    0.0000 O   0  0  0  0  0  0  0  0  0  0  0  0
    6.3003    1.0058    0.0000 C   0  0  0  0  0  0  0  0  0  0  0  0
    7.0147    1.4183    0.0000 C   0  0  0  0  0  0  0  0  0  0  0  0
    5.2838    0.2914    0.0000 O   0  0  0  0  0  0  0  0  0  0  0  0
    6.1088    0.2914    0.0000 C   0  0  0  0  0  0  0  0  0  0  0  0
    6.5213   -0.4231    0.0000 C   0  0  0  0  0  0  0  0  0  0  0  0
    4.4588    1.7203    0.0000 O   0  0  0  0  0  0  0  0  0  0  0  0
    4.8713    2.4348    0.0000 C   0  0  0  0  0  0  0  0  0  0  0  0
    5.6963    2.4348    0.0000 C   0  0  0  0  0  0  0  0  0  0  0  0
   -1.1464   -0.1211    0.0000 O   0  0  0  0  0  0  0  0  0  0  0  0
   -0.3214   -0.1211    0.0000 C   0  0  0  0  0  0  0  0  0  0  0  0
    0.0911   -0.8356    0.0000 C   0  0  0  0  0  0  0  0  0  0  0  0
   -1.9714    1.3078    0.0000 O   0  0  0  0  0  0  0  0  0  0  0  0
   -1.5589    2.0223    0.0000 C   0  0  0  0  0  0  0  0  0  0  0  0
   -0.7339    2.0223    0.0000 C   0  0  0  0  0  0  0  0  0  0  0  0
  1  2  1  0
  2  3  1  0
  3  4  1  0
  4  5  1  0
  5  6  1  0
  6  7  1  0
  7  8  1  0
  8  9  1  0
  9 10  1  0
 10 11  1  0
 11 12  1  0
 12 13  1  0
 13 14  1  0
 14 15  1  0
 15 16  1  0
 13 17  1  0
 17 18  1  0
 18 19  1  0
 13 20  1  0
 20 21  1  0
 21 22  1  0
  4 23  1  0
 23 24  1  0
 24 25  1  0
  4 26  1  0
 26 27  1  0
 27 28  1  0
M  END
>  <id>  (312) 
1813

>  <casrn>  (312) 
56706-10-6

>  <smiles (First)>  (312) 


>  <Molecular weight>  (312) 
474.823486328125

>  <name>  (312) 
4,4,13,13-tetraethoxy-3,14-dioxa-8,9-dithia-4,13-disilahexadecane

>  <Outcome>  (312) 
0

>  <Molecule (RDKit Mol) (InChI Code)>  (312) 
InChI=1S/C18H42O6S2Si2/c1-7-19-27(20-8-2,21-9-3)17-13-15-25-26-16-14-18-28(22-10-4,23-11-5)24-12-6/h7-18H2,1-6H3

>  <reference>  (312) 
ECHA

>  <molecule_form>  (312) 
A

>  <ID>  (312) 


>  <SMILES>  (312) 
CCO[Si](CCCSSCCC[Si](OCC)(OCC)OCC)(OCC)OCC

>  <ROMol>  (312) 
<rdkit.Chem.rdchem.Mol object at 0x0000027F58437970>

$$$$

     RDKit          2D

 10 10  0  0  0  0  0  0  0  0999 V2000
    1.4317    2.4734    0.0000 N   0  0  0  0  0  0  0  0  0  0  0  0
    0.7172    2.0609    0.0000 C   0  0  0  0  0  0  0  0  0  0  0  0
    0.7172    1.2359    0.0000 C   0  0  0  0  0  0  0  0  0  0  0  0
    1.4317    0.8234    0.0000 C   0  0  0  0  0  0  0  0  0  0  0  0
    1.4317   -0.0016    0.0000 C   0  0  0  0  0  0  0  0  0  0  0  0
    0.7172   -0.4141    0.0000 C   0  0  0  0  0  0  0  0  0  0  0  0
    0.0027   -0.0016    0.0000 C   0  0  0  0  0  0  0  0  0  0  0  0
   -0.7117   -0.4141    0.0000 C   0  0  0  0  0  0  0  0  0  0  0  0
   -0.7117   -1.2391    0.0000 N   0  0  0  0  0  0  0  0  0  0  0  0
    0.0027    0.8234    0.0000 C   0  0  0  0  0  0  0  0  0  0  0  0
  1  2  1  0
  2  3  1  0
  3  4  2  0
  4  5  1  0
  5  6  2  0
  6  7  1  0
  7  8  1  0
  8  9  1  0
  7 10  2  0
  3 10  1  0
M  END
>  <id>  (313) 
999

>  <casrn>  (313) 
1477-55-0

>  <smiles (First)>  (313) 


>  <Molecular weight>  (313) 
136.19427490234375

>  <name>  (313) 
1,3-phenylenedimethanamine

>  <Outcome>  (313) 
1

>  <Molecule (RDKit Mol) (InChI Code)>  (313) 
InChI=1S/C8H12N2/c9-5-7-2-1-3-8(4-7)6-10/h1-4H,5-6,9-10H2

>  <reference>  (313) 
ECHA

>  <molecule_form>  (313) 
A

>  <ID>  (313) 


>  <SMILES>  (313) 
NCc1cccc(CN)c1

>  <ROMol>  (313) 
<rdkit.Chem.rdchem.Mol object at 0x0000027F589056D0>

$$$$

     RDKit          2D

  5  4  0  0  0  0  0  0  0  0999 V2000
    1.7250    1.5267    0.0000 C   0  0  0  0  0  0  0  0  0  0  0  0
    1.3125    0.8122    0.0000 C   0  0  0  0  0  0  0  0  0  0  0  0
    0.9000    0.0977    0.0000 C   0  0  0  0  0  0  0  0  0  0  0  0
    1.3125   -0.6167    0.0000 C   0  0  0  0  0  0  0  0  0  0  0  0
    0.0750    0.0977    0.0000 O   0  0  0  0  0  0  0  0  0  0  0  0
  1  2  3  0
  2  3  1  0
  3  4  1  0
  3  5  1  0
M  END
>  <id>  (314) 
2691

>  <casrn>  (314) 
2028-63-9

>  <smiles (First)>  (314) 


>  <Molecular weight>  (314) 
70.08984375

>  <name>  (314) 
but-3-yn-2-ol

>  <Outcome>  (314) 
1

>  <Molecule (RDKit Mol) (InChI Code)>  (314) 
InChI=1S/C4H6O/c1-3-4(2)5/h1,4-5H,2H3

>  <reference>  (314) 
ECHA

>  <molecule_form>  (314) 
V

>  <ID>  (314) 


>  <SMILES>  (314) 
C#CC(C)O

>  <ROMol>  (314) 
<rdkit.Chem.rdchem.Mol object at 0x0000027F5843A510>

$$$$

     RDKit          2D

 10  9  0  0  0  0  0  0  0  0999 V2000
    1.0047    1.4421    0.0000 C   0  0  0  0  0  0  0  0  0  0  0  0
    1.7191    1.8546    0.0000 C   0  0  0  0  0  0  0  0  0  0  0  0
    1.7191    2.6796    0.0000 O   0  0  0  0  0  0  0  0  0  0  0  0
    2.4336    1.4421    0.0000 O   0  0  0  0  0  0  0  0  0  0  0  0
    3.1481    1.8546    0.0000 C   0  0  0  0  0  0  0  0  0  0  0  0
    3.8625    1.4421    0.0000 C   0  0  0  0  0  0  0  0  0  0  0  0
    4.5770    1.8546    0.0000 O   0  0  0  0  0  0  0  0  0  0  0  0
    5.2915    1.4421    0.0000 C   0  0  0  0  0  0  0  0  0  0  0  0
    6.0060    1.8546    0.0000 C   0  0  0  0  0  0  0  0  0  0  0  0
    5.2915    0.6171    0.0000 C   0  0  0  0  0  0  0  0  0  0  0  0
  1  2  1  0
  2  3  2  0
  2  4  1  0
  4  5  1  0
  5  6  1  0
  6  7  1  0
  7  8  1  0
  8  9  1  0
  8 10  1  0
M  END
>  <id>  (315) 
1493

>  <casrn>  (315) 
19234-20-9

>  <smiles (First)>  (315) 


>  <Molecular weight>  (315) 
146.18426513671875

>  <name>  (315) 
2-isopropoxyethyl acetate

>  <Outcome>  (315) 
0

>  <Molecule (RDKit Mol) (InChI Code)>  (315) 
InChI=1S/C7H14O3/c1-6(2)9-4-5-10-7(3)8/h6H,4-5H2,1-3H3

>  <reference>  (315) 
ECHA

>  <molecule_form>  (315) 
A

>  <ID>  (315) 


>  <SMILES>  (315) 
CC(=O)OCCOC(C)C

>  <ROMol>  (315) 
<rdkit.Chem.rdchem.Mol object at 0x0000027F5843A3C0>

$$$$

     RDKit          2D

 10 11  0  0  0  0  0  0  0  0999 V2000
    0.7188   -1.1585    0.0000 C   0  0  0  0  0  0  0  0  0  0  0  0
    0.7188   -0.3335    0.0000 C   0  0  0  0  0  0  0  0  0  0  0  0
    1.4333    0.0790    0.0000 C   0  0  0  0  0  0  0  0  0  0  0  0
    2.1478   -0.3335    0.0000 C   0  0  0  0  0  0  0  0  0  0  0  0
    2.8622    0.0790    0.0000 C   0  0  0  0  0  0  0  0  0  0  0  0
    3.5767   -0.3335    0.0000 C   0  0  0  0  0  0  0  0  0  0  0  0
    3.5767   -1.1585    0.0000 C   0  0  0  0  0  0  0  0  0  0  0  0
    2.8622   -1.5710    0.0000 C   0  0  0  0  0  0  0  0  0  0  0  0
    2.1478   -1.1585    0.0000 C   0  0  0  0  0  0  0  0  0  0  0  0
    1.4333   -1.5710    0.0000 C   0  0  0  0  0  0  0  0  0  0  0  0
  1  2  1  0
  2  3  1  0
  3  4  1  0
  4  5  1  0
  5  6  1  0
  6  7  1  0
  7  8  1  0
  8  9  1  0
  4  9  1  0
  9 10  1  0
  1 10  1  0
M  END
>  <id>  (316) 
2881; 2882; 2883

>  <casrn>  (316) 
91-17-8

>  <smiles (First)>  (316) 


>  <Molecular weight>  (316) 
138.2499237060547

>  <name>  (316) 
decahydronaphthalene

>  <Outcome>  (316) 
1

>  <Molecule (RDKit Mol) (InChI Code)>  (316) 
InChI=1S/C10H18/c1-2-6-10-8-4-3-7-9(10)5-1/h9-10H,1-8H2

>  <reference>  (316) 
ECHA

>  <molecule_form>  (316) 
V

>  <ID>  (316) 


>  <SMILES>  (316) 
C1CCC2CCCCC2C1

>  <ROMol>  (316) 
<rdkit.Chem.rdchem.Mol object at 0x0000027F624B1E40>

$$$$

     RDKit          2D

 18 17  0  0  0  0  0  0  0  0999 V2000
    7.2336    5.0013    0.0000 C   0  0  0  0  0  0  0  0  0  0  0  0
    7.9480    5.4138    0.0000 C   0  0  0  0  0  0  0  0  0  0  0  0
    8.6625    5.0013    0.0000 C   0  0  0  0  0  0  0  0  0  0  0  0
    9.3770    5.4138    0.0000 C   0  0  0  0  0  0  0  0  0  0  0  0
   10.0914    5.0013    0.0000 C   0  0  0  0  0  0  0  0  0  0  0  0
   10.8059    5.4138    0.0000 C   0  0  0  0  0  0  0  0  0  0  0  0
   11.5204    5.0013    0.0000 C   0  0  0  0  0  0  0  0  0  0  0  0
   12.2349    5.4138    0.0000 C   0  0  0  0  0  0  0  0  0  0  0  0
   12.9493    5.0013    0.0000 C   0  0  0  0  0  0  0  0  0  0  0  0
   13.6638    5.4138    0.0000 C   0  0  0  0  0  0  0  0  0  0  0  0
   14.3783    5.0013    0.0000 C   0  0  0  0  0  0  0  0  0  0  0  0
   15.0927    5.4138    0.0000 C   0  0  0  0  0  0  0  0  0  0  0  0
   15.8072    5.0013    0.0000 C   0  0  0  0  0  0  0  0  0  0  0  0
   16.5217    5.4138    0.0000 C   0  0  0  0  0  0  0  0  0  0  0  0
   17.2362    5.0013    0.0000 C   0  0  0  0  0  0  0  0  0  0  0  0
   17.9506    5.4138    0.0000 C   0  0  0  0  0  0  0  0  0  0  0  0
   18.6651    5.0013    0.0000 C   0  0  0  0  0  0  0  0  0  0  0  0
   19.3796    5.4138    0.0000 C   0  0  0  0  0  0  0  0  0  0  0  0
  1  2  1  0
  2  3  1  0
  3  4  1  0
  4  5  1  0
  5  6  1  0
  6  7  1  0
  7  8  1  0
  8  9  1  0
  9 10  1  0
 10 11  1  0
 11 12  1  0
 12 13  1  0
 13 14  1  0
 14 15  1  0
 15 16  1  0
 16 17  1  0
 17 18  1  0
M  END
>  <id>  (317) 
3624

>  <casrn>  (317) 
593-45-3

>  <smiles (First)>  (317) 


>  <Molecular weight>  (317) 
254.49432373046875

>  <name>  (317) 
octadecane

>  <Outcome>  (317) 
0

>  <Molecule (RDKit Mol) (InChI Code)>  (317) 
InChI=1S/C18H38/c1-3-5-7-9-11-13-15-17-18-16-14-12-10-8-6-4-2/h3-18H2,1-2H3

>  <reference>  (317) 
ECHA

>  <molecule_form>  (317) 
A

>  <ID>  (317) 


>  <SMILES>  (317) 
CCCCCCCCCCCCCCCCCC

>  <ROMol>  (317) 
<rdkit.Chem.rdchem.Mol object at 0x0000027F5C149C10>

$$$$

     RDKit          2D

 13 12  0  0  0  0  0  0  0  0999 V2000
    5.4730    3.9857    0.0000 C   0  0  0  0  0  0  0  0  0  0  0  0
    6.1875    3.5732    0.0000 C   0  0  0  0  0  0  0  0  0  0  0  0
    6.9020    3.9857    0.0000 C   0  0  0  0  0  0  0  0  0  0  0  0
    7.6164    3.5732    0.0000 C   0  0  0  0  0  0  0  0  0  0  0  0
    8.3309    3.9857    0.0000 C   0  0  0  0  0  0  0  0  0  0  0  0
    9.0454    3.5732    0.0000 C   0  0  0  0  0  0  0  0  0  0  0  0
    9.7599    3.9857    0.0000 C   0  0  0  0  0  0  0  0  0  0  0  0
   10.4743    3.5732    0.0000 C   0  0  0  0  0  0  0  0  0  0  0  0
   11.1888    3.9857    0.0000 C   0  0  0  0  0  0  0  0  0  0  0  0
   11.9033    3.5732    0.0000 C   0  0  0  0  0  0  0  0  0  0  0  0
   12.6177    3.9857    0.0000 C   0  0  0  0  0  0  0  0  0  0  0  0
   13.3322    3.5732    0.0000 C   0  0  0  0  0  0  0  0  0  0  0  0
   14.0467    3.9857    0.0000 C   0  0  0  0  0  0  0  0  0  0  0  0
  1  2  1  0
  2  3  1  0
  3  4  1  0
  4  5  1  0
  5  6  1  0
  6  7  1  0
  7  8  1  0
  8  9  1  0
  9 10  1  0
 10 11  1  0
 11 12  1  0
 12 13  1  0
M  END
>  <id>  (318) 
4050; 4057; 4054; 4051; 4055

>  <casrn>  (318) 
629-50-5

>  <smiles (First)>  (318) 


>  <Molecular weight>  (318) 
184.36141967773438

>  <name>  (318) 
tridecane

>  <Outcome>  (318) 
0

>  <Molecule (RDKit Mol) (InChI Code)>  (318) 
InChI=1S/C13H28/c1-3-5-7-9-11-13-12-10-8-6-4-2/h3-13H2,1-2H3

>  <reference>  (318) 
ECHA

>  <molecule_form>  (318) 
V; A

>  <ID>  (318) 


>  <SMILES>  (318) 
CCCCCCCCCCCCC

>  <ROMol>  (318) 
<rdkit.Chem.rdchem.Mol object at 0x0000027F584DE7B0>

$$$$

     RDKit          2D

  8  7  0  0  0  0  0  0  0  0999 V2000
    0.8250   -1.6500    0.0000 F   0  0  0  0  0  0  0  0  0  0  0  0
    0.8250   -0.8250    0.0000 C   0  0  0  0  0  0  0  0  0  0  0  0
    1.6500   -0.8250    0.0000 F   0  0  0  0  0  0  0  0  0  0  0  0
    0.0000   -0.8250    0.0000 F   0  0  0  0  0  0  0  0  0  0  0  0
    0.8250    0.0000    0.0000 C   0  0  0  0  0  0  0  0  0  0  0  0
    0.8250    0.8250    0.0000 F   0  0  0  0  0  0  0  0  0  0  0  0
    1.6500   -0.0000    0.0000 F   0  0  0  0  0  0  0  0  0  0  0  0
    0.0000    0.0000    0.0000 F   0  0  0  0  0  0  0  0  0  0  0  0
  1  2  1  0
  2  3  1  0
  2  4  1  0
  2  5  1  0
  5  6  1  0
  5  7  1  0
  5  8  1  0
M  END
>  <id>  (319) 
3311

>  <casrn>  (319) 
76-16-4

>  <smiles (First)>  (319) 


>  <Molecular weight>  (319) 
138.01182556152344

>  <name>  (319) 
hexafluoroethane

>  <Outcome>  (319) 
0

>  <Molecule (RDKit Mol) (InChI Code)>  (319) 
InChI=1S/C2F6/c3-1(4,5)2(6,7)8

>  <reference>  (319) 
ECHA

>  <molecule_form>  (319) 
G

>  <ID>  (319) 


>  <SMILES>  (319) 
FC(F)(F)C(F)(F)F

>  <ROMol>  (319) 
<rdkit.Chem.rdchem.Mol object at 0x0000027F5C144BA0>

$$$$

     RDKit          2D

  4  3  0  0  0  0  0  0  0  0999 V2000
    0.9311   -0.2534    0.0000 C   0  0  0  0  0  0  0  0  0  0  0  0
    0.5186    0.4611    0.0000 C   0  0  0  0  0  0  0  0  0  0  0  0
   -0.3064    0.4611    0.0000 C   0  0  0  0  0  0  0  0  0  0  0  0
   -1.1314    0.4611    0.0000 N   0  0  0  0  0  0  0  0  0  0  0  0
  1  2  1  0
  2  3  1  0
  3  4  3  0
M  END
>  <id>  (320) 
798333

>  <casrn>  (320) 
107-12-0

>  <smiles (First)>  (320) 
CCC#N

>  <Molecular weight>  (320) 
55.07849884033203

>  <name>  (320) 
Propionitrile

>  <Outcome>  (320) 
1

>  <Molecule (RDKit Mol) (InChI Code)>  (320) 
InChI=1S/C3H5N/c1-2-3-4/h2H2,1H3

>  <reference>  (320) 
ToxValDB

>  <molecule_form>  (320) 
not specified

>  <ID>  (320) 


>  <SMILES>  (320) 
CCC#N

>  <ROMol>  (320) 
<rdkit.Chem.rdchem.Mol object at 0x0000027F6244F0B0>

$$$$

     RDKit          2D

  4  3  0  0  0  0  0  0  0  0999 V2000
    1.3885   -0.1510    0.0000 Cl  0  0  0  0  0  0  0  0  0  0  0  0
    0.5635   -0.1510    0.0000 C   0  0  0  0  0  0  0  0  0  0  0  0
    0.1510    0.5635    0.0000 C   0  0  0  0  0  0  0  0  0  0  0  0
   -0.6740    0.5635    0.0000 Cl  0  0  0  0  0  0  0  0  0  0  0  0
  1  2  1  0
  2  3  1  0
  3  4  1  0
M  END
>  <id>  (321) 
962601

>  <casrn>  (321) 
107-06-2

>  <smiles (First)>  (321) 
ClCCCl

>  <Molecular weight>  (321) 
98.95915985107422

>  <name>  (321) 
1,2-Dichloroethane

>  <Outcome>  (321) 
1

>  <Molecule (RDKit Mol) (InChI Code)>  (321) 
InChI=1S/C2H4Cl2/c3-1-2-4/h1-2H2

>  <reference>  (321) 
ToxValDB

>  <molecule_form>  (321) 
not specified

>  <ID>  (321) 


>  <SMILES>  (321) 
ClCCCl

>  <ROMol>  (321) 
<rdkit.Chem.rdchem.Mol object at 0x0000027F78E26AC0>

$$$$

     RDKit          2D

 11 12  0  0  0  0  0  0  0  0999 V2000
   -0.5821    7.9957    0.0000 C   0  0  0  0  0  0  0  0  0  0  0  0
    0.1324    7.5832    0.0000 C   0  0  0  0  0  0  0  0  0  0  0  0
    0.1324    6.7582    0.0000 C   0  0  0  0  0  0  0  0  0  0  0  0
   -0.5821    6.3457    0.0000 C   0  0  0  0  0  0  0  0  0  0  0  0
   -0.5821    5.5207    0.0000 O   0  0  0  0  0  0  0  0  0  0  0  0
    0.1324    5.1082    0.0000 C   0  0  0  0  0  0  0  0  0  0  0  0
    0.1324    4.2832    0.0000 C   0  0  0  0  0  0  0  0  0  0  0  0
    0.5449    3.5688    0.0000 C   0  0  0  0  0  0  0  0  0  0  0  0
   -0.2801    3.5688    0.0000 O   0  0  0  0  0  0  0  0  0  0  0  0
   -1.2965    6.7582    0.0000 C   0  0  0  0  0  0  0  0  0  0  0  0
   -1.2965    7.5832    0.0000 C   0  0  0  0  0  0  0  0  0  0  0  0
  1  2  2  0
  2  3  1  0
  3  4  2  0
  4  5  1  0
  5  6  1  0
  6  7  1  0
  7  8  1  0
  8  9  1  0
  7  9  1  0
  4 10  1  0
 10 11  2  0
  1 11  1  0
M  END
>  <id>  (322) 
1354

>  <casrn>  (322) 
122-60-1

>  <smiles (First)>  (322) 


>  <Molecular weight>  (322) 
150.17449951171875

>  <name>  (322) 
2-(phenoxymethyl)oxirane

>  <Outcome>  (322) 
1

>  <Molecule (RDKit Mol) (InChI Code)>  (322) 
InChI=1S/C9H10O2/c1-2-4-8(5-3-1)10-6-9-7-11-9/h1-5,9H,6-7H2

>  <reference>  (322) 
ECHA

>  <molecule_form>  (322) 
V

>  <ID>  (322) 


>  <SMILES>  (322) 
c1ccc(OCC2CO2)cc1

>  <ROMol>  (322) 
<rdkit.Chem.rdchem.Mol object at 0x0000027F58437C10>

$$$$

     RDKit          2D

 14 13  0  0  0  0  0  0  0  0999 V2000
    2.2809    2.1644    0.0000 C   0  0  0  0  0  0  0  0  0  0  0  0
    2.9954    2.5769    0.0000 C   0  0  0  0  0  0  0  0  0  0  0  0
    3.7099    2.1644    0.0000 C   0  0  0  0  0  0  0  0  0  0  0  0
    4.4243    2.5769    0.0000 C   0  0  0  0  0  0  0  0  0  0  0  0
    5.1388    2.1644    0.0000 C   0  0  0  0  0  0  0  0  0  0  0  0
    5.1388    1.3394    0.0000 C   0  0  0  0  0  0  0  0  0  0  0  0
    5.8533    0.9269    0.0000 C   0  0  0  0  0  0  0  0  0  0  0  0
    5.8533    2.5769    0.0000 C   0  0  0  0  0  0  0  0  0  0  0  0
    6.5677    2.1644    0.0000 O   0  0  0  0  0  0  0  0  0  0  0  0
    7.2822    2.5769    0.0000 C   0  0  0  0  0  0  0  0  0  0  0  0
    7.2822    3.4019    0.0000 O   0  0  0  0  0  0  0  0  0  0  0  0
    7.9967    2.1644    0.0000 C   0  0  0  0  0  0  0  0  0  0  0  0
    8.7112    2.5769    0.0000 C   0  0  0  0  0  0  0  0  0  0  0  0
    7.9967    1.3394    0.0000 O   0  0  0  0  0  0  0  0  0  0  0  0
  1  2  1  0
  2  3  1  0
  3  4  1  0
  4  5  1  0
  5  6  1  0
  6  7  1  0
  5  8  1  0
  8  9  1  0
  9 10  1  0
 10 11  2  0
 10 12  1  0
 12 13  1  0
 12 14  1  0
M  END
>  <id>  (323) 
665

>  <casrn>  (323) 
186817-80-1

>  <smiles (First)>  (323) 


>  <Molecular weight>  (323) 
202.29058837890625

>  <name>  (323) 
-

>  <Outcome>  (323) 
0

>  <Molecule (RDKit Mol) (InChI Code)>  (323) 
InChI=1S/C11H22O3/c1-4-6-7-10(5-2)8-14-11(13)9(3)12/h9-10,12H,4-8H2,1-3H3

>  <reference>  (323) 
ECHA

>  <molecule_form>  (323) 
A

>  <ID>  (323) 


>  <SMILES>  (323) 
CCCCC(CC)COC(=O)C(C)O

>  <ROMol>  (323) 
<rdkit.Chem.rdchem.Mol object at 0x0000027F584379E0>

$$$$

     RDKit          2D

  9  9  0  0  0  0  0  0  0  0999 V2000
    0.1320    3.3848    0.0000 C   0  0  0  0  0  0  0  0  0  0  0  0
    0.1320    2.5598    0.0000 C   0  0  0  0  0  0  0  0  0  0  0  0
    0.8465    2.1473    0.0000 O   0  0  0  0  0  0  0  0  0  0  0  0
    0.8465    1.3223    0.0000 C   0  0  0  0  0  0  0  0  0  0  0  0
    1.5610    0.9098    0.0000 C   0  0  0  0  0  0  0  0  0  0  0  0
    1.5610    0.0848    0.0000 C   0  0  0  0  0  0  0  0  0  0  0  0
    0.8465   -0.3277    0.0000 C   0  0  0  0  0  0  0  0  0  0  0  0
    0.1320    0.0848    0.0000 C   0  0  0  0  0  0  0  0  0  0  0  0
    0.1320    0.9098    0.0000 C   0  0  0  0  0  0  0  0  0  0  0  0
  1  2  2  0
  2  3  1  0
  3  4  1  0
  4  5  1  0
  5  6  1  0
  6  7  1  0
  7  8  1  0
  8  9  1  0
  4  9  1  0
M  END
>  <id>  (324) 
223

>  <casrn>  (324) 
2182-55-0

>  <smiles (First)>  (324) 


>  <Molecular weight>  (324) 
126.19615936279297

>  <name>  (324) 
(ethenyloxy)cyclohexane

>  <Outcome>  (324) 
0

>  <Molecule (RDKit Mol) (InChI Code)>  (324) 
InChI=1S/C8H14O/c1-2-9-8-6-4-3-5-7-8/h2,8H,1,3-7H2

>  <reference>  (324) 
ECHA

>  <molecule_form>  (324) 
V

>  <ID>  (324) 


>  <SMILES>  (324) 
C=COC1CCCCC1

>  <ROMol>  (324) 
<rdkit.Chem.rdchem.Mol object at 0x0000027F584D5EB0>

$$$$

     RDKit          2D

  8  8  0  0  0  0  0  0  0  0999 V2000
    0.0000    2.4750    0.0000 O   0  0  0  0  0  0  0  0  0  0  0  0
    0.7145    2.0625    0.0000 C   0  0  0  0  0  0  0  0  0  0  0  0
    0.7145    1.2375    0.0000 C   0  0  0  0  0  0  0  0  0  0  0  0
    1.4289    0.8250    0.0000 C   0  0  0  0  0  0  0  0  0  0  0  0
    1.4289    0.0000    0.0000 C   0  0  0  0  0  0  0  0  0  0  0  0
    0.7145   -0.4125    0.0000 C   0  0  0  0  0  0  0  0  0  0  0  0
    0.0000    0.0000    0.0000 C   0  0  0  0  0  0  0  0  0  0  0  0
    0.0000    0.8250    0.0000 N   0  0  0  0  0  0  0  0  0  0  0  0
  1  2  2  0
  2  3  1  0
  3  4  2  0
  4  5  1  0
  5  6  2  0
  6  7  1  0
  7  8  2  0
  3  8  1  0
M  END
>  <id>  (325) 
3813

>  <casrn>  (325) 
1121-60-4

>  <smiles (First)>  (325) 


>  <Molecular weight>  (325) 
107.11000061035156

>  <name>  (325) 
pyridine-2-carbaldehyde

>  <Outcome>  (325) 
1

>  <Molecule (RDKit Mol) (InChI Code)>  (325) 
InChI=1S/C6H5NO/c8-5-6-3-1-2-4-7-6/h1-5H

>  <reference>  (325) 
ECHA

>  <molecule_form>  (325) 
A

>  <ID>  (325) 


>  <SMILES>  (325) 
O=Cc1ccccn1

>  <ROMol>  (325) 
<rdkit.Chem.rdchem.Mol object at 0x0000027F624633C0>

$$$$

     RDKit          2D

 20 20  0  0  0  0  0  0  0  0999 V2000
   -1.4156    6.6018    0.0000 C   0  0  0  0  0  0  0  0  0  0  0  0
   -1.4156    5.7768    0.0000 C   0  0  0  0  0  0  0  0  0  0  0  0
   -0.7011    5.3643    0.0000 C   0  0  0  0  0  0  0  0  0  0  0  0
   -0.7011    4.5393    0.0000 O   0  0  0  0  0  0  0  0  0  0  0  0
    0.0133    4.1268    0.0000 C   0  0  0  0  0  0  0  0  0  0  0  0
    0.7278    4.5393    0.0000 O   0  0  0  0  0  0  0  0  0  0  0  0
    0.0133    3.3018    0.0000 C   0  0  0  0  0  0  0  0  0  0  0  0
   -0.8117    3.3018    0.0000 C   0  0  0  0  0  0  0  0  0  0  0  0
    0.8383    3.3018    0.0000 C   0  0  0  0  0  0  0  0  0  0  0  0
    0.0133    2.4768    0.0000 O   0  0  0  0  0  0  0  0  0  0  0  0
    0.7278    2.0643    0.0000 C   0  0  0  0  0  0  0  0  0  0  0  0
    1.4423    2.4768    0.0000 O   0  0  0  0  0  0  0  0  0  0  0  0
    0.7278    1.2393    0.0000 C   0  0  0  0  0  0  0  0  0  0  0  0
    1.4423    0.8268    0.0000 C   0  0  0  0  0  0  0  0  0  0  0  0
    1.4423    0.0018    0.0000 C   0  0  0  0  0  0  0  0  0  0  0  0
    2.1567   -0.4107    0.0000 N   0  0  0  0  0  0  0  0  0  0  0  0
    0.7278   -0.4107    0.0000 C   0  0  0  0  0  0  0  0  0  0  0  0
    0.0133    0.0018    0.0000 C   0  0  0  0  0  0  0  0  0  0  0  0
    0.0133    0.8268    0.0000 C   0  0  0  0  0  0  0  0  0  0  0  0
   -0.7011    1.2393    0.0000 Cl  0  0  0  0  0  0  0  0  0  0  0  0
  1  2  2  0
  2  3  1  0
  3  4  1  0
  4  5  1  0
  5  6  2  0
  5  7  1  0
  7  8  1  0
  7  9  1  0
  7 10  1  0
 10 11  1  0
 11 12  2  0
 11 13  1  0
 13 14  2  0
 14 15  1  0
 15 16  1  0
 15 17  2  0
 17 18  1  0
 18 19  2  0
 13 19  1  0
 19 20  1  0
M  END
>  <id>  (326) 
413

>  <casrn>  (326) 
174489-43-1

>  <smiles (First)>  (326) 


>  <Molecular weight>  (326) 
297.734130859375

>  <name>  (326) 
-

>  <Outcome>  (326) 
0

>  <Molecule (RDKit Mol) (InChI Code)>  (326) 
InChI=1S/C14H16ClNO4/c1-4-7-19-13(18)14(2,3)20-12(17)10-8-9(16)5-6-11(10)15/h4-6,8H,1,7,16H2,2-3H3

>  <reference>  (326) 
ECHA

>  <molecule_form>  (326) 
A

>  <ID>  (326) 


>  <SMILES>  (326) 
C=CCOC(=O)C(C)(C)OC(=O)c1cc(N)ccc1Cl

>  <ROMol>  (326) 
<rdkit.Chem.rdchem.Mol object at 0x0000027F584DE270>

$$$$

     RDKit          2D

 13 13  0  0  0  0  0  0  0  0999 V2000
    0.0017    4.1260    0.0000 F   0  0  0  0  0  0  0  0  0  0  0  0
    0.0017    3.3010    0.0000 C   0  0  0  0  0  0  0  0  0  0  0  0
   -0.8233    3.3010    0.0000 F   0  0  0  0  0  0  0  0  0  0  0  0
    0.8267    3.3010    0.0000 F   0  0  0  0  0  0  0  0  0  0  0  0
    0.0017    2.4760    0.0000 C   0  0  0  0  0  0  0  0  0  0  0  0
    0.7161    2.0635    0.0000 O   0  0  0  0  0  0  0  0  0  0  0  0
    0.7161    1.2385    0.0000 C   0  0  0  0  0  0  0  0  0  0  0  0
    1.4306    0.8260    0.0000 C   0  0  0  0  0  0  0  0  0  0  0  0
    1.4306    0.0010    0.0000 C   0  0  0  0  0  0  0  0  0  0  0  0
    0.7161   -0.4115    0.0000 C   0  0  0  0  0  0  0  0  0  0  0  0
    0.0017    0.0010    0.0000 N   0  0  0  0  0  0  0  0  0  0  0  0
    0.0017    0.8260    0.0000 C   0  0  0  0  0  0  0  0  0  0  0  0
   -0.7128    1.2385    0.0000 Cl  0  0  0  0  0  0  0  0  0  0  0  0
  1  2  1  0
  2  3  1  0
  2  4  1  0
  2  5  1  0
  5  6  1  0
  6  7  1  0
  7  8  2  0
  8  9  1  0
  9 10  2  0
 10 11  1  0
 11 12  2  0
  7 12  1  0
 12 13  1  0
M  END
>  <id>  (327) 
822

>  <casrn>  (327) 
256473-04-8

>  <smiles (First)>  (327) 


>  <Molecular weight>  (327) 
211.56890869140625

>  <name>  (327) 
-

>  <Outcome>  (327) 
0

>  <Molecule (RDKit Mol) (InChI Code)>  (327) 
InChI=1S/C7H5ClF3NO/c8-6-5(2-1-3-12-6)13-4-7(9,10)11/h1-3H,4H2

>  <reference>  (327) 
ECHA

>  <molecule_form>  (327) 
A

>  <ID>  (327) 


>  <SMILES>  (327) 
FC(F)(F)COc1cccnc1Cl

>  <ROMol>  (327) 
<rdkit.Chem.rdchem.Mol object at 0x0000027F584284A0>

$$$$

     RDKit          2D

  6  5  0  0  0  0  0  0  0  0999 V2000
    2.6710   -1.4141    0.0000 C   0  0  0  0  0  0  0  0  0  0  0  0
    2.2585   -0.6997    0.0000 C   0  0  0  0  0  0  0  0  0  0  0  0
    2.6710    0.0148    0.0000 C   0  0  0  0  0  0  0  0  0  0  0  0
    1.4335   -0.6997    0.0000 C   0  0  0  0  0  0  0  0  0  0  0  0
    1.0210    0.0148    0.0000 C   0  0  0  0  0  0  0  0  0  0  0  0
    0.1960    0.0148    0.0000 N   0  0  0  0  0  0  0  0  0  0  0  0
  1  2  1  0
  2  3  1  0
  2  4  1  0
  4  5  1  0
  5  6  1  0
M  END
>  <id>  (328) 
1787; 1786

>  <casrn>  (328) 
107-85-7

>  <smiles (First)>  (328) 


>  <Molecular weight>  (328) 
87.16342163085938

>  <name>  (328) 
3-methylbutan-1-amine

>  <Outcome>  (328) 
1

>  <Molecule (RDKit Mol) (InChI Code)>  (328) 
InChI=1S/C5H13N/c1-5(2)3-4-6/h5H,3-4,6H2,1-2H3

>  <reference>  (328) 
ECHA

>  <molecule_form>  (328) 
V

>  <ID>  (328) 


>  <SMILES>  (328) 
CC(C)CCN

>  <ROMol>  (328) 
<rdkit.Chem.rdchem.Mol object at 0x0000027F58905430>

$$$$

     RDKit          2D

  7  6  0  0  0  0  0  0  0  0999 V2000
    2.5873   -1.6864    0.0000 C   0  0  0  0  0  0  0  0  0  0  0  0
    1.7623   -1.6864    0.0000 C   0  0  0  0  0  0  0  0  0  0  0  0
    1.3498   -0.9720    0.0000 C   0  0  0  0  0  0  0  0  0  0  0  0
    2.0643   -0.5595    0.0000 C   0  0  0  0  0  0  0  0  0  0  0  0
    0.6354   -1.3845    0.0000 C   0  0  0  0  0  0  0  0  0  0  0  0
    0.9373   -0.2575    0.0000 O   0  0  0  0  0  0  0  0  0  0  0  0
    0.1123   -0.2575    0.0000 C   0  0  0  0  0  0  0  0  0  0  0  0
  1  2  1  0
  2  3  1  0
  3  4  1  0
  3  5  1  0
  3  6  1  0
  6  7  1  0
M  END
>  <id>  (329) 
1494

>  <casrn>  (329) 
994-05-8

>  <smiles (First)>  (329) 


>  <Molecular weight>  (329) 
102.17475891113281

>  <name>  (329) 
2-methoxy-2-methylbutane

>  <Outcome>  (329) 
1

>  <Molecule (RDKit Mol) (InChI Code)>  (329) 
InChI=1S/C6H14O/c1-5-6(2,3)7-4/h5H2,1-4H3

>  <reference>  (329) 
ECHA

>  <molecule_form>  (329) 
V

>  <ID>  (329) 


>  <SMILES>  (329) 
CCC(C)(C)OC

>  <ROMol>  (329) 
<rdkit.Chem.rdchem.Mol object at 0x0000027F5843A9E0>

$$$$

     RDKit          2D

  3  2  0  0  0  0  0  0  0  0999 V2000
    2.2000   -0.0000    0.0000 C   0  0  0  0  0  0  0  0  0  0  0  0
    1.3750    0.0000    0.0000 C   0  0  0  0  0  0  0  0  0  0  0  0
    0.5500    0.0000    0.0000 N   0  0  0  0  0  0  0  0  0  0  0  0
  1  2  1  0
  2  3  3  0
M  END
>  <id>  (330) 
2570

>  <casrn>  (330) 
75-05-8

>  <smiles (First)>  (330) 


>  <Molecular weight>  (330) 
41.05192184448242

>  <name>  (330) 
acetonitrile

>  <Outcome>  (330) 
1

>  <Molecule (RDKit Mol) (InChI Code)>  (330) 
InChI=1S/C2H3N/c1-2-3/h1H3

>  <reference>  (330) 
ECHA

>  <molecule_form>  (330) 
V

>  <ID>  (330) 


>  <SMILES>  (330) 
CC#N

>  <ROMol>  (330) 
<rdkit.Chem.rdchem.Mol object at 0x0000027F5C1449E0>

$$$$

     RDKit          2D

 13 13  0  0  0  0  0  0  0  0999 V2000
    1.4289    2.4750    0.0000 O   0  0  0  0  0  0  0  0  0  0  0  0
    0.7145    2.0625    0.0000 N   0  0  0  0  0  0  0  0  0  0  0  0
   -0.0000    2.4750    0.0000 O   0  0  0  0  0  0  0  0  0  0  0  0
    0.7145    1.2375    0.0000 C   0  0  0  0  0  0  0  0  0  0  0  0
    1.4289    0.8250    0.0000 C   0  0  0  0  0  0  0  0  0  0  0  0
    1.4289   -0.0000    0.0000 C   0  0  0  0  0  0  0  0  0  0  0  0
    0.7145   -0.4125    0.0000 C   0  0  0  0  0  0  0  0  0  0  0  0
   -0.0000   -0.0000    0.0000 C   0  0  0  0  0  0  0  0  0  0  0  0
   -0.7145   -0.4125    0.0000 S   0  0  0  0  0  0  0  0  0  0  0  0
   -1.4289   -0.8250    0.0000 O   0  0  0  0  0  0  0  0  0  0  0  0
   -1.1270    0.3020    0.0000 O   0  0  0  0  0  0  0  0  0  0  0  0
   -0.3020   -1.1270    0.0000 O   0  0  0  0  0  0  0  0  0  0  0  0
   -0.0000    0.8250    0.0000 C   0  0  0  0  0  0  0  0  0  0  0  0
  1  2  1  0
  2  3  2  0
  2  4  1  0
  4  5  2  0
  5  6  1  0
  6  7  2  0
  7  8  1  0
  8  9  1  0
  9 10  2  0
  9 11  2  0
  9 12  1  0
  8 13  2  0
  4 13  1  0
M  CHG  2   1  -1   2   1
M  END
>  <id>  (331) 
3857; 3858

>  <casrn>  (331) 
127-68-4

>  <smiles (First)>  (331) 


>  <Molecular weight>  (331) 
202.16465759277344

>  <name>  (331) 
sodium 3-nitrobenzene-1-sulfonate

>  <Outcome>  (331) 
0

>  <Molecule (RDKit Mol) (InChI Code)>  (331) 
InChI=1S/C6H5NO5S/c8-7(9)5-2-1-3-6(4-5)13(10,11)12/h1-4H,(H,10,11,12)

>  <reference>  (331) 
ECHA

>  <molecule_form>  (331) 
A

>  <ID>  (331) 


>  <SMILES>  (331) 
O=[N+]([O-])c1cccc(S(=O)(=O)O)c1

>  <ROMol>  (331) 
<rdkit.Chem.rdchem.Mol object at 0x0000027F583F4820>

$$$$

     RDKit          2D

 24 25  0  0  0  0  0  0  0  0999 V2000
   -3.5968   -6.9743    0.0000 C   0  0  0  0  0  0  0  0  0  0  0  0
   -2.8823   -7.3868    0.0000 C   0  0  0  0  0  0  0  0  0  0  0  0
   -2.1678   -6.9743    0.0000 C   0  0  0  0  0  0  0  0  0  0  0  0
   -1.4534   -7.3868    0.0000 C   0  0  0  0  0  0  0  0  0  0  0  0
   -0.7389   -6.9743    0.0000 O   0  0  0  0  0  0  0  0  0  0  0  0
   -0.0244   -7.3868    0.0000 C   0  0  0  0  0  0  0  0  0  0  0  0
    0.6900   -6.9743    0.0000 C   0  0  0  0  0  0  0  0  0  0  0  0
    1.4045   -7.3868    0.0000 O   0  0  0  0  0  0  0  0  0  0  0  0
    2.1190   -6.9743    0.0000 C   0  0  0  0  0  0  0  0  0  0  0  0
    2.8335   -7.3868    0.0000 C   0  0  0  0  0  0  0  0  0  0  0  0
    3.5479   -6.9743    0.0000 O   0  0  0  0  0  0  0  0  0  0  0  0
    4.2624   -7.3868    0.0000 C   0  0  0  0  0  0  0  0  0  0  0  0
    4.9769   -6.9743    0.0000 C   0  0  0  0  0  0  0  0  0  0  0  0
    4.9769   -6.1493    0.0000 C   0  0  0  0  0  0  0  0  0  0  0  0
    5.6913   -5.7368    0.0000 C   0  0  0  0  0  0  0  0  0  0  0  0
    6.4058   -6.1493    0.0000 C   0  0  0  0  0  0  0  0  0  0  0  0
    6.4058   -6.9743    0.0000 C   0  0  0  0  0  0  0  0  0  0  0  0
    5.6913   -7.3868    0.0000 C   0  0  0  0  0  0  0  0  0  0  0  0
    5.6913   -8.2118    0.0000 C   0  0  0  0  0  0  0  0  0  0  0  0
    6.4058   -8.6243    0.0000 C   0  0  0  0  0  0  0  0  0  0  0  0
    7.1203   -8.2118    0.0000 C   0  0  0  0  0  0  0  0  0  0  0  0
    7.0189   -5.5973    0.0000 O   0  0  0  0  0  0  0  0  0  0  0  0
    6.6834   -4.8436    0.0000 C   0  0  0  0  0  0  0  0  0  0  0  0
    5.8629   -4.9299    0.0000 O   0  0  0  0  0  0  0  0  0  0  0  0
  1  2  1  0
  2  3  1  0
  3  4  1  0
  4  5  1  0
  5  6  1  0
  6  7  1  0
  7  8  1  0
  8  9  1  0
  9 10  1  0
 10 11  1  0
 11 12  1  0
 12 13  1  0
 13 14  2  0
 14 15  1  0
 15 16  2  0
 16 17  1  0
 17 18  2  0
 13 18  1  0
 18 19  1  0
 19 20  1  0
 20 21  1  0
 16 22  1  0
 22 23  1  0
 23 24  1  0
 15 24  1  0
M  END
>  <id>  (332) 
1879

>  <casrn>  (332) 
51-03-6

>  <smiles (First)>  (332) 


>  <Molecular weight>  (332) 
338.4385070800781

>  <name>  (332) 
5-{[2-(2-butoxyethoxy)ethoxy]methyl}-6-propyl-2H-1,3-benzodioxole

>  <Outcome>  (332) 
0

>  <Molecule (RDKit Mol) (InChI Code)>  (332) 
InChI=1S/C19H30O5/c1-3-5-7-20-8-9-21-10-11-22-14-17-13-19-18(23-15-24-19)12-16(17)6-4-2/h12-13H,3-11,14-15H2,1-2H3

>  <reference>  (332) 
ECHA

>  <molecule_form>  (332) 
A

>  <ID>  (332) 


>  <SMILES>  (332) 
CCCCOCCOCCOCc1cc2c(cc1CCC)OCO2

>  <ROMol>  (332) 
<rdkit.Chem.rdchem.Mol object at 0x0000027F58437D60>

$$$$

     RDKit          2D

  3  2  0  0  0  0  0  0  0  0999 V2000
    2.3767   -1.2031    0.0000 C   0  0  0  0  0  0  0  0  0  0  0  0
    1.9642   -0.4886    0.0000 N   0  0  0  0  0  0  0  0  0  0  0  0
    1.1392   -0.4886    0.0000 N   0  0  0  0  0  0  0  0  0  0  0  0
  1  2  1  0
  2  3  1  0
M  END
>  <id>  (333) 
3484

>  <casrn>  (333) 
60-34-4

>  <smiles (First)>  (333) 


>  <Molecular weight>  (333) 
46.071739196777344

>  <name>  (333) 
methylhydrazine

>  <Outcome>  (333) 
1

>  <Molecule (RDKit Mol) (InChI Code)>  (333) 
InChI=1S/CH6N2/c1-3-2/h3H,2H2,1H3

>  <reference>  (333) 
ECHA

>  <molecule_form>  (333) 
V

>  <ID>  (333) 


>  <SMILES>  (333) 
CNN

>  <ROMol>  (333) 
<rdkit.Chem.rdchem.Mol object at 0x0000027F5843ACF0>

$$$$

     RDKit          2D

  2  1  0  0  0  0  0  0  0  0999 V2000
    0.8250    0.0000    0.0000 C   0  0  0  0  0  0  0  0  0  0  0  0
    0.0000    0.0000    0.0000 O   0  0  0  0  0  0  0  0  0  0  0  0
  1  2  3  0
M  CHG  2   1  -1   2   1
M  END
>  <id>  (334) 
3430; 3431; 3432

>  <casrn>  (334) 
630-08-0

>  <smiles (First)>  (334) 


>  <Molecular weight>  (334) 
28.010101318359375

>  <name>  (334) 
methanidylidyneoxidanium

>  <Outcome>  (334) 
1

>  <Molecule (RDKit Mol) (InChI Code)>  (334) 
InChI=1S/CO/c1-2

>  <reference>  (334) 
ECHA

>  <molecule_form>  (334) 
G

>  <ID>  (334) 


>  <SMILES>  (334) 
[C-]#[O+]

>  <ROMol>  (334) 
<rdkit.Chem.rdchem.Mol object at 0x0000027F5C149040>

$$$$

     RDKit          2D

 25 24  0  0  0  0  0  0  0  0999 V2000
    2.6210    9.7575    0.0000 C   0  0  0  0  0  0  0  0  0  0  0  0
    2.6210    8.9325    0.0000 C   0  0  0  0  0  0  0  0  0  0  0  0
    3.3355    8.5200    0.0000 C   0  0  0  0  0  0  0  0  0  0  0  0
    3.3355    7.6950    0.0000 C   0  0  0  0  0  0  0  0  0  0  0  0
    4.0499    7.2825    0.0000 C   0  0  0  0  0  0  0  0  0  0  0  0
    4.0499    6.4575    0.0000 C   0  0  0  0  0  0  0  0  0  0  0  0
    4.7644    6.0450    0.0000 C   0  0  0  0  0  0  0  0  0  0  0  0
    4.7644    5.2200    0.0000 C   0  0  0  0  0  0  0  0  0  0  0  0
    5.4789    4.8075    0.0000 C   0  0  0  0  0  0  0  0  0  0  0  0
    5.4789    3.9825    0.0000 C   0  0  0  0  0  0  0  0  0  0  0  0
    6.1933    3.5700    0.0000 C   0  0  0  0  0  0  0  0  0  0  0  0
    6.9078    3.9825    0.0000 C   0  0  0  0  0  0  0  0  0  0  0  0
    7.6223    3.5700    0.0000 C   0  0  0  0  0  0  0  0  0  0  0  0
    8.3367    3.9825    0.0000 C   0  0  0  0  0  0  0  0  0  0  0  0
    9.0512    3.5700    0.0000 C   0  0  0  0  0  0  0  0  0  0  0  0
    9.7657    3.9825    0.0000 C   0  0  0  0  0  0  0  0  0  0  0  0
   10.4802    3.5700    0.0000 C   0  0  0  0  0  0  0  0  0  0  0  0
   11.1946    3.9825    0.0000 C   0  0  0  0  0  0  0  0  0  0  0  0
   11.1946    4.8075    0.0000 O   0  0  0  0  0  0  0  0  0  0  0  0
   11.9091    3.5700    0.0000 N   0  0  0  0  0  0  0  0  0  0  0  0
   11.9091    2.7450    0.0000 C   0  0  0  0  0  0  0  0  0  0  0  0
   12.6236    3.9825    0.0000 C   0  0  0  0  0  0  0  0  0  0  0  0
   13.3380    3.5700    0.0000 C   0  0  0  0  0  0  0  0  0  0  0  0
   14.0525    3.9825    0.0000 O   0  0  0  0  0  0  0  0  0  0  0  0
   13.3380    2.7450    0.0000 O   0  0  0  0  0  0  0  0  0  0  0  0
  1  2  1  0
  2  3  1  0
  3  4  1  0
  4  5  1  0
  5  6  1  0
  6  7  1  0
  7  8  1  0
  9  8  1  0
  9 10  2  3
 10 11  1  0
 11 12  1  0
 12 13  1  0
 13 14  1  0
 14 15  1  0
 15 16  1  0
 16 17  1  0
 17 18  1  0
 18 19  2  0
 18 20  1  0
 20 21  1  0
 20 22  1  0
 22 23  1  0
 23 24  2  0
 23 25  1  0
M  END
>  <id>  (335) 
3744

>  <casrn>  (335) 
76622-74-7

>  <smiles (First)>  (335) 


>  <Molecular weight>  (335) 
352.5313415527344

>  <name>  (335) 
potassium (Z)-N-methyl-N-(1-oxo-9-octadecenyl)aminoacetate

>  <Outcome>  (335) 
1

>  <Molecule (RDKit Mol) (InChI Code)>  (335) 
InChI=1S/C21H39NO3/c1-3-4-5-6-7-8-9-10-11-12-13-14-15-16-17-18-20(23)22(2)19-21(24)25/h10-11H,3-9,12-19H2,1-2H3,(H,24,25)

>  <reference>  (335) 
ECHA

>  <molecule_form>  (335) 
A

>  <ID>  (335) 


>  <SMILES>  (335) 
CCCCCCCCC=CCCCCCCCC(=O)N(C)CC(=O)O

>  <ROMol>  (335) 
<rdkit.Chem.rdchem.Mol object at 0x0000027F589054A0>

$$$$

     RDKit          2D

  5  5  0  0  0  0  0  0  0  0999 V2000
    0.4980    2.6013    0.0000 C   0  0  0  0  0  0  0  0  0  0  0  0
    0.4980    1.7763    0.0000 C   0  0  0  0  0  0  0  0  0  0  0  0
    0.4980    0.9513    0.0000 C   0  0  0  0  0  0  0  0  0  0  0  0
    0.9105    0.2368    0.0000 C   0  0  0  0  0  0  0  0  0  0  0  0
    0.0855    0.2368    0.0000 C   0  0  0  0  0  0  0  0  0  0  0  0
  1  2  3  0
  2  3  1  0
  3  4  1  0
  4  5  1  0
  3  5  1  0
M  END
>  <id>  (336) 
3207

>  <casrn>  (336) 
6746-94-7

>  <smiles (First)>  (336) 


>  <Molecular weight>  (336) 
66.10114288330078

>  <name>  (336) 
ethynylcyclopropane

>  <Outcome>  (336) 
0

>  <Molecule (RDKit Mol) (InChI Code)>  (336) 
InChI=1S/C5H6/c1-2-5-3-4-5/h1,5H,3-4H2

>  <reference>  (336) 
ECHA

>  <molecule_form>  (336) 
V

>  <ID>  (336) 


>  <SMILES>  (336) 
C#CC1CC1

>  <ROMol>  (336) 
<rdkit.Chem.rdchem.Mol object at 0x0000027F583F4200>

$$$$

     RDKit          2D

 11 11  0  0  0  0  0  0  0  0999 V2000
    0.7299    2.2215    0.0000 C   0  0  0  0  0  0  0  0  0  0  0  0
    0.7299    1.3965    0.0000 C   0  0  0  0  0  0  0  0  0  0  0  0
    1.4444    0.9840    0.0000 C   0  0  0  0  0  0  0  0  0  0  0  0
    1.4444    0.1590    0.0000 C   0  0  0  0  0  0  0  0  0  0  0  0
    0.7299   -0.2535    0.0000 C   0  0  0  0  0  0  0  0  0  0  0  0
    0.7299   -1.0785    0.0000 C   0  0  0  0  0  0  0  0  0  0  0  0
    1.4444   -1.4910    0.0000 C   0  0  0  0  0  0  0  0  0  0  0  0
    0.0154   -1.4910    0.0000 C   0  0  0  0  0  0  0  0  0  0  0  0
    0.0154    0.1590    0.0000 C   0  0  0  0  0  0  0  0  0  0  0  0
   -0.6990   -0.2535    0.0000 O   0  0  0  0  0  0  0  0  0  0  0  0
    0.0154    0.9840    0.0000 C   0  0  0  0  0  0  0  0  0  0  0  0
  1  2  1  0
  2  3  1  0
  3  4  1  0
  4  5  1  0
  5  6  1  0
  6  7  1  0
  6  8  1  0
  5  9  1  0
  9 10  1  0
  9 11  1  0
  2 11  1  0
M  END
>  <id>  (337) 
231; 1871; 1872

>  <casrn>  (337) 
3623-51-6

>  <smiles (First)>  (337) 


>  <Molecular weight>  (337) 
156.26519775390625

>  <name>  (337) 
(??)-neomenthol

>  <Outcome>  (337) 
0

>  <Molecule (RDKit Mol) (InChI Code)>  (337) 
InChI=1S/C10H20O/c1-7(2)9-5-4-8(3)6-10(9)11/h7-11H,4-6H2,1-3H3

>  <reference>  (337) 
ECHA

>  <molecule_form>  (337) 
A

>  <ID>  (337) 


>  <SMILES>  (337) 
CC1CCC(C(C)C)C(O)C1

>  <ROMol>  (337) 
<rdkit.Chem.rdchem.Mol object at 0x0000027F584ACF90>

$$$$

     RDKit          2D

  2  1  0  0  0  0  0  0  0  0999 V2000
    0.8250    0.0000    0.0000 C   0  0  0  0  0  0  0  0  0  0  0  0
   -0.0000    0.0000    0.0000 I   0  0  0  0  0  0  0  0  0  0  0  0
  1  2  1  0
M  END
>  <id>  (338) 
3364

>  <casrn>  (338) 
74-88-4

>  <smiles (First)>  (338) 


>  <Molecular weight>  (338) 
141.93899536132812

>  <name>  (338) 
iodomethane

>  <Outcome>  (338) 
1

>  <Molecule (RDKit Mol) (InChI Code)>  (338) 
InChI=1S/CH3I/c1-2/h1H3

>  <reference>  (338) 
ECHA

>  <molecule_form>  (338) 
V

>  <ID>  (338) 


>  <SMILES>  (338) 
CI

>  <ROMol>  (338) 
<rdkit.Chem.rdchem.Mol object at 0x0000027F58428190>

$$$$

     RDKit          2D

  5  4  0  0  0  0  0  0  0  0999 V2000
    0.8910   -0.8250    0.0000 C   0  0  0  0  0  0  0  0  0  0  0  0
    0.8910    0.0000    0.0000 C   0  0  0  0  0  0  0  0  0  0  0  0
    0.8910    0.8250    0.0000 C   0  0  0  0  0  0  0  0  0  0  0  0
    1.7160   -0.0000    0.0000 C   0  0  0  0  0  0  0  0  0  0  0  0
    0.0660    0.0000    0.0000 N   0  0  0  0  0  0  0  0  0  0  0  0
  1  2  1  0
  2  3  1  0
  2  4  1  0
  2  5  1  0
M  END
>  <id>  (339) 
1659

>  <casrn>  (339) 
75-64-9

>  <smiles (First)>  (339) 


>  <Molecular weight>  (339) 
73.1368408203125

>  <name>  (339) 
2-methylpropan-2-amine

>  <Outcome>  (339) 
1

>  <Molecule (RDKit Mol) (InChI Code)>  (339) 
InChI=1S/C4H11N/c1-4(2,3)5/h5H2,1-3H3

>  <reference>  (339) 
ECHA

>  <molecule_form>  (339) 
V

>  <ID>  (339) 


>  <SMILES>  (339) 
CC(C)(C)N

>  <ROMol>  (339) 
<rdkit.Chem.rdchem.Mol object at 0x0000027F584AC6D0>

$$$$

     RDKit          2D

 25 26  0  0  0  0  0  0  0  0999 V2000
    0.7145   -2.0609    0.0000 O   0  0  0  0  0  0  0  0  0  0  0  0
    0.7145   -1.2359    0.0000 C   0  0  0  0  0  0  0  0  0  0  0  0
    1.4289   -0.8234    0.0000 O   0  0  0  0  0  0  0  0  0  0  0  0
    2.1434   -1.2359    0.0000 C   0  0  0  0  0  0  0  0  0  0  0  0
    2.8579   -0.8234    0.0000 C   0  0  0  0  0  0  0  0  0  0  0  0
    3.5724   -1.2359    0.0000 C   0  0  0  0  0  0  0  0  0  0  0  0
    4.2868   -0.8234    0.0000 O   0  0  0  0  0  0  0  0  0  0  0  0
    5.0013   -1.2359    0.0000 C   0  0  0  0  0  0  0  0  0  0  0  0
    5.7158   -0.8234    0.0000 C   0  0  0  0  0  0  0  0  0  0  0  0
    6.4302   -1.2359    0.0000 C   0  0  0  0  0  0  0  0  0  0  0  0
    7.1447   -0.8234    0.0000 O   0  0  0  0  0  0  0  0  0  0  0  0
    7.8592   -1.2359    0.0000 C   0  0  0  0  0  0  0  0  0  0  0  0
    7.8592   -2.0609    0.0000 O   0  0  0  0  0  0  0  0  0  0  0  0
    8.5737   -0.8234    0.0000 C   0  0  0  0  0  0  0  0  0  0  0  0
    8.5737    0.0016    0.0000 C   0  0  0  0  0  0  0  0  0  0  0  0
    9.2881    0.4141    0.0000 C   0  0  0  0  0  0  0  0  0  0  0  0
   10.0026    0.0016    0.0000 C   0  0  0  0  0  0  0  0  0  0  0  0
   10.0026   -0.8234    0.0000 C   0  0  0  0  0  0  0  0  0  0  0  0
    9.2881   -1.2359    0.0000 C   0  0  0  0  0  0  0  0  0  0  0  0
    0.0000   -0.8234    0.0000 C   0  0  0  0  0  0  0  0  0  0  0  0
   -0.7145   -1.2359    0.0000 C   0  0  0  0  0  0  0  0  0  0  0  0
   -1.4289   -0.8234    0.0000 C   0  0  0  0  0  0  0  0  0  0  0  0
   -1.4289    0.0016    0.0000 C   0  0  0  0  0  0  0  0  0  0  0  0
   -0.7145    0.4141    0.0000 C   0  0  0  0  0  0  0  0  0  0  0  0
    0.0000    0.0016    0.0000 C   0  0  0  0  0  0  0  0  0  0  0  0
  1  2  2  0
  2  3  1  0
  3  4  1  0
  4  5  1  0
  5  6  1  0
  6  7  1  0
  7  8  1  0
  8  9  1  0
  9 10  1  0
 10 11  1  0
 11 12  1  0
 12 13  2  0
 12 14  1  0
 14 15  2  0
 15 16  1  0
 16 17  2  0
 17 18  1  0
 18 19  2  0
 14 19  1  0
  2 20  1  0
 20 21  2  0
 21 22  1  0
 22 23  2  0
 23 24  1  0
 24 25  2  0
 20 25  1  0
M  END
>  <id>  (340) 
1107

>  <casrn>  (340) 
27138-31-4

>  <smiles (First)>  (340) 


>  <Molecular weight>  (340) 
342.38568115234375

>  <name>  (340) 
1-[2-(benzoyloxy)propoxy]propan-2-yl benzoate 1-{[1-(benzoyloxy)propan-2-yl]oxy}propan-2-yl benzoate 2-{[1-(benzoyloxy)propan-2-yl]oxy}propyl benzoate

>  <Outcome>  (340) 
0

>  <Molecule (RDKit Mol) (InChI Code)>  (340) 
InChI=1S/C20H22O5/c21-19(17-9-3-1-4-10-17)24-15-7-13-23-14-8-16-25-20(22)18-11-5-2-6-12-18/h1-6,9-12H,7-8,13-16H2

>  <reference>  (340) 
ECHA

>  <molecule_form>  (340) 
A

>  <ID>  (340) 


>  <SMILES>  (340) 
O=C(OCCCOCCCOC(=O)c1ccccc1)c1ccccc1

>  <ROMol>  (340) 
<rdkit.Chem.rdchem.Mol object at 0x0000027F6246B890>

$$$$

     RDKit          2D

 23 24  0  0  0  0  0  0  0  0999 V2000
    0.8679    2.8126    0.0000 Br  0  0  0  0  0  0  0  0  0  0  0  0
    0.1534    2.4001    0.0000 C   0  0  0  0  0  0  0  0  0  0  0  0
   -0.5610    2.8126    0.0000 C   0  0  0  0  0  0  0  0  0  0  0  0
   -0.5610    3.6376    0.0000 Br  0  0  0  0  0  0  0  0  0  0  0  0
   -1.2755    2.4001    0.0000 C   0  0  0  0  0  0  0  0  0  0  0  0
   -1.9900    2.8126    0.0000 Br  0  0  0  0  0  0  0  0  0  0  0  0
   -1.2755    1.5751    0.0000 C   0  0  0  0  0  0  0  0  0  0  0  0
   -1.9900    1.1626    0.0000 O   0  0  0  0  0  0  0  0  0  0  0  0
   -1.9900    0.3376    0.0000 C   0  0  0  0  0  0  0  0  0  0  0  0
   -2.7045   -0.0749    0.0000 C   0  0  0  0  0  0  0  0  0  0  0  0
   -3.4189    0.3376    0.0000 Br  0  0  0  0  0  0  0  0  0  0  0  0
   -2.7045   -0.8999    0.0000 C   0  0  0  0  0  0  0  0  0  0  0  0
   -3.4189   -1.3124    0.0000 Br  0  0  0  0  0  0  0  0  0  0  0  0
   -1.9900   -1.3124    0.0000 C   0  0  0  0  0  0  0  0  0  0  0  0
   -1.9900   -2.1374    0.0000 Br  0  0  0  0  0  0  0  0  0  0  0  0
   -1.2755   -0.8999    0.0000 C   0  0  0  0  0  0  0  0  0  0  0  0
   -0.5610   -1.3124    0.0000 Br  0  0  0  0  0  0  0  0  0  0  0  0
   -1.2755   -0.0749    0.0000 C   0  0  0  0  0  0  0  0  0  0  0  0
   -0.5610    0.3376    0.0000 Br  0  0  0  0  0  0  0  0  0  0  0  0
   -0.5610    1.1626    0.0000 C   0  0  0  0  0  0  0  0  0  0  0  0
   -0.0761    0.4952    0.0000 Br  0  0  0  0  0  0  0  0  0  0  0  0
    0.1534    1.5751    0.0000 C   0  0  0  0  0  0  0  0  0  0  0  0
    0.8679    1.1626    0.0000 Br  0  0  0  0  0  0  0  0  0  0  0  0
  1  2  1  0
  3  2  2  0
  3  4  1  0
  5  3  1  0
  5  6  1  0
  7  5  2  0
  7  8  1  0
  8  9  1  0
 10  9  2  0
 10 11  1  0
 12 10  1  0
 12 13  1  0
 14 12  2  0
 14 15  1  0
 16 14  1  0
 16 17  1  0
 18 16  2  0
 18 19  1  0
 20  7  1  0
 20 21  1  0
 22 20  2  0
 22 23  1  0
  2 22  1  0
  9 18  1  0
M  END
>  <id>  (341) 
212156

>  <casrn>  (341) 
1163-19-5

>  <smiles (First)>  (341) 
Brc1c(Br)c(Br)c(Oc2c(Br)c(Br)c(Br)c(Br)c2Br)c(Br)c1Br

>  <Molecular weight>  (341) 
959.1677856445312

>  <name>  (341) 
1,1-Oxybis[2,3,4,5,6-pentabromobenzene]

>  <Outcome>  (341) 
0

>  <Molecule (RDKit Mol) (InChI Code)>  (341) 
InChI=1S/C12Br10O/c13-1-3(15)7(19)11(8(20)4(1)16)23-12-9(21)5(17)2(14)6(18)10(12)22

>  <reference>  (341) 
ToxValDB

>  <molecule_form>  (341) 
not specified

>  <ID>  (341) 


>  <SMILES>  (341) 
Brc1c(Br)c(Br)c(Oc2c(Br)c(Br)c(Br)c(Br)c2Br)c(Br)c1Br

>  <ROMol>  (341) 
<rdkit.Chem.rdchem.Mol object at 0x0000027F78E26820>

$$$$

     RDKit          2D

 27 26  0  0  0  0  0  0  0  0999 V2000
    9.2563    5.3925    0.0000 O   0  0  0  0  0  0  0  0  0  0  0  0
    8.5418    5.8050    0.0000 C   0  0  0  0  0  0  0  0  0  0  0  0
    8.5418    6.6300    0.0000 O   0  0  0  0  0  0  0  0  0  0  0  0
    7.8273    5.3925    0.0000 C   0  0  0  0  0  0  0  0  0  0  0  0
    7.8273    4.5675    0.0000 N   0  0  0  0  0  0  0  0  0  0  0  0
    7.1128    4.1550    0.0000 C   0  0  0  0  0  0  0  0  0  0  0  0
    6.3984    4.5675    0.0000 C   0  0  0  0  0  0  0  0  0  0  0  0
    5.6839    4.1550    0.0000 N   0  0  0  0  0  0  0  0  0  0  0  0
    4.9694    4.5675    0.0000 C   0  0  0  0  0  0  0  0  0  0  0  0
    4.9694    5.3925    0.0000 C   0  0  0  0  0  0  0  0  0  0  0  0
    5.6839    5.8050    0.0000 O   0  0  0  0  0  0  0  0  0  0  0  0
    4.2550    5.8050    0.0000 O   0  0  0  0  0  0  0  0  0  0  0  0
    5.6839    3.3300    0.0000 C   0  0  0  0  0  0  0  0  0  0  0  0
    4.9694    2.9175    0.0000 C   0  0  0  0  0  0  0  0  0  0  0  0
    4.2550    3.3300    0.0000 O   0  0  0  0  0  0  0  0  0  0  0  0
    4.9694    2.0925    0.0000 O   0  0  0  0  0  0  0  0  0  0  0  0
    8.5418    4.1550    0.0000 C   0  0  0  0  0  0  0  0  0  0  0  0
    9.2563    4.5675    0.0000 C   0  0  0  0  0  0  0  0  0  0  0  0
    9.9707    4.1550    0.0000 N   0  0  0  0  0  0  0  0  0  0  0  0
   10.6852    4.5675    0.0000 C   0  0  0  0  0  0  0  0  0  0  0  0
   10.6852    5.3925    0.0000 C   0  0  0  0  0  0  0  0  0  0  0  0
    9.9707    5.8050    0.0000 O   0  0  0  0  0  0  0  0  0  0  0  0
   11.3997    5.8050    0.0000 O   0  0  0  0  0  0  0  0  0  0  0  0
    9.9707    3.3300    0.0000 C   0  0  0  0  0  0  0  0  0  0  0  0
   10.6852    2.9175    0.0000 C   0  0  0  0  0  0  0  0  0  0  0  0
   11.3997    3.3300    0.0000 O   0  0  0  0  0  0  0  0  0  0  0  0
   10.6852    2.0925    0.0000 O   0  0  0  0  0  0  0  0  0  0  0  0
  1  2  2  0
  2  3  1  0
  2  4  1  0
  4  5  1  0
  5  6  1  0
  6  7  1  0
  7  8  1  0
  8  9  1  0
  9 10  1  0
 10 11  2  0
 10 12  1  0
  8 13  1  0
 13 14  1  0
 14 15  2  0
 14 16  1  0
  5 17  1  0
 17 18  1  0
 18 19  1  0
 19 20  1  0
 20 21  1  0
 21 22  2  0
 21 23  1  0
 19 24  1  0
 24 25  1  0
 25 26  2  0
 25 27  1  0
M  END
>  <id>  (342) 
3370

>  <casrn>  (342) 
12389-75-2

>  <smiles (First)>  (342) 


>  <Molecular weight>  (342) 
389.31475830078125

>  <name>  (342) 
iron(3+) ion sodium 2-{[2-({2-[bis(carboxylatomethyl)amino]ethyl}(carboxylatomethyl)amino)ethyl](carboxymethyl)amino}acetate

>  <Outcome>  (342) 
0

>  <Molecule (RDKit Mol) (InChI Code)>  (342) 
InChI=1S/C14H23N3O10/c18-10(19)5-15(1-3-16(6-11(20)21)7-12(22)23)2-4-17(8-13(24)25)9-14(26)27/h1-9H2,(H,18,19)(H,20,21)(H,22,23)(H,24,25)(H,26,27)

>  <reference>  (342) 
ECHA

>  <molecule_form>  (342) 
A

>  <ID>  (342) 


>  <SMILES>  (342) 
O=C(O)CN(CCN(CC(=O)O)CC(=O)O)CCN(CC(=O)O)CC(=O)O

>  <ROMol>  (342) 
<rdkit.Chem.rdchem.Mol object at 0x0000027F5846EBA0>

$$$$

     RDKit          2D

  4  3  0  0  0  0  0  0  0  0999 V2000
    1.3557   -0.1372    0.0000 Cl  0  0  0  0  0  0  0  0  0  0  0  0
    0.5307   -0.1372    0.0000 C   0  0  0  0  0  0  0  0  0  0  0  0
    0.1182    0.5773    0.0000 C   0  0  0  0  0  0  0  0  0  0  0  0
   -0.7068    0.5773    0.0000 O   0  0  0  0  0  0  0  0  0  0  0  0
  1  2  1  0
  2  3  1  0
  3  4  2  0
M  END
>  <id>  (343) 
912383

>  <casrn>  (343) 
107-20-0

>  <smiles (First)>  (343) 
ClCC=O

>  <Molecular weight>  (343) 
78.49761962890625

>  <name>  (343) 
Chloroacetaldehyde

>  <Outcome>  (343) 
1

>  <Molecule (RDKit Mol) (InChI Code)>  (343) 
InChI=1S/C2H3ClO/c3-1-2-4/h2H,1H2

>  <reference>  (343) 
ToxValDB

>  <molecule_form>  (343) 
not specified

>  <ID>  (343) 


>  <SMILES>  (343) 
O=CCCl

>  <ROMol>  (343) 
<rdkit.Chem.rdchem.Mol object at 0x0000027F58444C10>

$$$$

     RDKit          2D

 10  9  0  0  0  0  0  0  0  0999 V2000
   -0.0001    0.0000    0.0000 C   0  0  0  0  0  0  0  0  0  0  0  0
    0.7144    0.4125    0.0000 C   0  0  0  0  0  0  0  0  0  0  0  0
    1.4288    0.0000    0.0000 C   0  0  0  0  0  0  0  0  0  0  0  0
    2.1433    0.4125    0.0000 C   0  0  0  0  0  0  0  0  0  0  0  0
    2.8578    0.0000    0.0000 C   0  0  0  0  0  0  0  0  0  0  0  0
    3.5723    0.4125    0.0000 C   0  0  0  0  0  0  0  0  0  0  0  0
    4.2867    0.0000    0.0000 C   0  0  0  0  0  0  0  0  0  0  0  0
    5.0012    0.4125    0.0000 C   0  0  0  0  0  0  0  0  0  0  0  0
    5.7157    0.0000    0.0000 C   0  0  0  0  0  0  0  0  0  0  0  0
    6.4301    0.4125    0.0000 O   0  0  0  0  0  0  0  0  0  0  0  0
  1  2  1  0
  2  3  1  0
  3  4  1  0
  4  5  1  0
  5  6  1  0
  6  7  1  0
  7  8  1  0
  8  9  1  0
  9 10  1  0
M  END
>  <id>  (344) 
237242

>  <casrn>  (344) 
143-08-8

>  <smiles (First)>  (344) 
CCCCCCCCCO

>  <Molecular weight>  (344) 
144.25450134277344

>  <name>  (344) 
1-Nonanol

>  <Outcome>  (344) 
0

>  <Molecule (RDKit Mol) (InChI Code)>  (344) 
InChI=1S/C9H20O/c1-2-3-4-5-6-7-8-9-10/h10H,2-9H2,1H3

>  <reference>  (344) 
ToxValDB

>  <molecule_form>  (344) 
not specified

>  <ID>  (344) 


>  <SMILES>  (344) 
CCCCCCCCCO

>  <ROMol>  (344) 
<rdkit.Chem.rdchem.Mol object at 0x0000027F58905270>

$$$$

     RDKit          2D

 14 13  0  0  0  0  0  0  0  0999 V2000
    5.4730    3.9849    0.0000 C   0  0  0  0  0  0  0  0  0  0  0  0
    6.1875    3.5724    0.0000 C   0  0  0  0  0  0  0  0  0  0  0  0
    6.9020    3.9849    0.0000 C   0  0  0  0  0  0  0  0  0  0  0  0
    7.6164    3.5724    0.0000 C   0  0  0  0  0  0  0  0  0  0  0  0
    8.3309    3.9849    0.0000 C   0  0  0  0  0  0  0  0  0  0  0  0
    9.0454    3.5724    0.0000 C   0  0  0  0  0  0  0  0  0  0  0  0
    9.7599    3.9849    0.0000 C   0  0  0  0  0  0  0  0  0  0  0  0
   10.4743    3.5724    0.0000 C   0  0  0  0  0  0  0  0  0  0  0  0
   11.1888    3.9849    0.0000 C   0  0  0  0  0  0  0  0  0  0  0  0
   11.9033    3.5724    0.0000 C   0  0  0  0  0  0  0  0  0  0  0  0
   12.6177    3.9849    0.0000 C   0  0  0  0  0  0  0  0  0  0  0  0
   12.6177    4.8099    0.0000 O   0  0  0  0  0  0  0  0  0  0  0  0
   13.3322    3.5724    0.0000 O   0  0  0  0  0  0  0  0  0  0  0  0
   14.0467    3.9849    0.0000 C   0  0  0  0  0  0  0  0  0  0  0  0
  1  2  2  0
  2  3  1  0
  3  4  1  0
  4  5  1  0
  5  6  1  0
  6  7  1  0
  7  8  1  0
  8  9  1  0
  9 10  1  0
 10 11  1  0
 11 12  2  0
 11 13  1  0
 13 14  1  0
M  END
>  <id>  (345) 
3480

>  <casrn>  (345) 
111-81-9

>  <smiles (First)>  (345) 


>  <Molecular weight>  (345) 
198.3018798828125

>  <name>  (345) 
methyl undec-10-enoate

>  <Outcome>  (345) 
1

>  <Molecule (RDKit Mol) (InChI Code)>  (345) 
InChI=1S/C12H22O2/c1-3-4-5-6-7-8-9-10-11-12(13)14-2/h3H,1,4-11H2,2H3

>  <reference>  (345) 
ECHA

>  <molecule_form>  (345) 
A

>  <ID>  (345) 


>  <SMILES>  (345) 
C=CCCCCCCCCC(=O)OC

>  <ROMol>  (345) 
<rdkit.Chem.rdchem.Mol object at 0x0000027F624DD5F0>

$$$$

     RDKit          2D

 10 10  0  0  0  0  0  0  0  0999 V2000
    0.7145    2.0625    0.0000 Cl  0  0  0  0  0  0  0  0  0  0  0  0
    0.7145    1.2375    0.0000 C   0  0  0  0  0  0  0  0  0  0  0  0
    1.4289    0.8250    0.0000 C   0  0  0  0  0  0  0  0  0  0  0  0
    1.4289   -0.0000    0.0000 C   0  0  0  0  0  0  0  0  0  0  0  0
    0.7145   -0.4125    0.0000 C   0  0  0  0  0  0  0  0  0  0  0  0
   -0.0000   -0.0000    0.0000 C   0  0  0  0  0  0  0  0  0  0  0  0
   -0.0000    0.8250    0.0000 C   0  0  0  0  0  0  0  0  0  0  0  0
   -0.7145    1.2375    0.0000 C   0  0  0  0  0  0  0  0  0  0  0  0
   -1.4289    0.8250    0.0000 Cl  0  0  0  0  0  0  0  0  0  0  0  0
   -0.7145    2.0625    0.0000 Cl  0  0  0  0  0  0  0  0  0  0  0  0
  1  2  1  0
  2  3  2  0
  3  4  1  0
  4  5  2  0
  5  6  1  0
  6  7  2  0
  2  7  1  0
  7  8  1  0
  8  9  1  0
  8 10  1  0
M  END
>  <id>  (346) 
1134

>  <casrn>  (346) 
88-66-4

>  <smiles (First)>  (346) 


>  <Molecular weight>  (346) 
195.47360229492188

>  <name>  (346) 
1-chloro-2-(dichloromethyl)benzene

>  <Outcome>  (346) 
0

>  <Molecule (RDKit Mol) (InChI Code)>  (346) 
InChI=1S/C7H5Cl3/c8-6-4-2-1-3-5(6)7(9)10/h1-4,7H

>  <reference>  (346) 
ECHA

>  <molecule_form>  (346) 
A

>  <ID>  (346) 


>  <SMILES>  (346) 
Clc1ccccc1C(Cl)Cl

>  <ROMol>  (346) 
<rdkit.Chem.rdchem.Mol object at 0x0000027F5842FEB0>

$$$$

     RDKit          2D

  7  6  0  0  0  0  0  0  0  0999 V2000
    1.7620    1.6005    0.0000 C   0  0  0  0  0  0  0  0  0  0  0  0
    1.3495    0.8861    0.0000 C   0  0  0  0  0  0  0  0  0  0  0  0
    0.6350    1.2986    0.0000 C   0  0  0  0  0  0  0  0  0  0  0  0
    2.0640    0.4736    0.0000 C   0  0  0  0  0  0  0  0  0  0  0  0
    0.9370    0.1716    0.0000 C   0  0  0  0  0  0  0  0  0  0  0  0
    1.3495   -0.5429    0.0000 O   0  0  0  0  0  0  0  0  0  0  0  0
    0.1120    0.1716    0.0000 O   0  0  0  0  0  0  0  0  0  0  0  0
  1  2  1  0
  2  3  1  0
  2  4  1  0
  2  5  1  0
  5  6  2  0
  5  7  1  0
M  END
>  <id>  (347) 
3740; 3741

>  <casrn>  (347) 
75-98-9

>  <smiles (First)>  (347) 


>  <Molecular weight>  (347) 
102.13169860839844

>  <name>  (347) 
pivalic acid

>  <Outcome>  (347) 
0

>  <Molecule (RDKit Mol) (InChI Code)>  (347) 
InChI=1S/C5H10O2/c1-5(2,3)4(6)7/h1-3H3,(H,6,7)

>  <reference>  (347) 
ECHA

>  <molecule_form>  (347) 
A

>  <ID>  (347) 


>  <SMILES>  (347) 
CC(C)(C)C(=O)O

>  <ROMol>  (347) 
<rdkit.Chem.rdchem.Mol object at 0x0000027F58428430>

$$$$

     RDKit          2D

  5  4  0  0  0  0  0  0  0  0999 V2000
    2.4726   -1.4330    0.0000 C   0  0  0  0  0  0  0  0  0  0  0  0
    2.0601   -0.7185    0.0000 C   0  0  0  0  0  0  0  0  0  0  0  0
    1.2351   -0.7185    0.0000 O   0  0  0  0  0  0  0  0  0  0  0  0
    0.8226   -0.0041    0.0000 C   0  0  0  0  0  0  0  0  0  0  0  0
   -0.0024   -0.0041    0.0000 C   0  0  0  0  0  0  0  0  0  0  0  0
  1  2  1  0
  2  3  1  0
  3  4  1  0
  4  5  1  0
M  END
>  <id>  (348) 
3144

>  <casrn>  (348) 
60-29-7

>  <smiles (First)>  (348) 


>  <Molecular weight>  (348) 
74.1216049194336

>  <name>  (348) 
ethoxyethane

>  <Outcome>  (348) 
0

>  <Molecule (RDKit Mol) (InChI Code)>  (348) 
InChI=1S/C4H10O/c1-3-5-4-2/h3-4H2,1-2H3

>  <reference>  (348) 
ECHA

>  <molecule_form>  (348) 
V

>  <ID>  (348) 


>  <SMILES>  (348) 
CCOCC

>  <ROMol>  (348) 
<rdkit.Chem.rdchem.Mol object at 0x0000027F5C149120>

$$$$

     RDKit          2D

  8  8  0  0  0  0  0  0  0  0999 V2000
    1.4684    0.6777    0.0000 N   0  0  0  0  0  0  0  0  0  0  0  0
    0.7540    0.2652    0.0000 C   0  0  0  0  0  0  0  0  0  0  0  0
    0.0395    0.6777    0.0000 C   0  0  0  0  0  0  0  0  0  0  0  0
   -0.6750    0.2652    0.0000 C   0  0  0  0  0  0  0  0  0  0  0  0
   -0.6750   -0.5598    0.0000 C   0  0  0  0  0  0  0  0  0  0  0  0
   -1.3895   -0.9723    0.0000 Cl  0  0  0  0  0  0  0  0  0  0  0  0
    0.0395   -0.9723    0.0000 C   0  0  0  0  0  0  0  0  0  0  0  0
    0.7540   -0.5598    0.0000 C   0  0  0  0  0  0  0  0  0  0  0  0
  1  2  1  0
  3  2  2  0
  4  3  1  0
  5  4  2  0
  5  6  1  0
  7  5  1  0
  8  7  2  0
  2  8  1  0
M  END
>  <id>  (349) 
201219

>  <casrn>  (349) 
106-47-8

>  <smiles (First)>  (349) 
Nc1ccc(Cl)cc1

>  <Molecular weight>  (349) 
127.57154083251953

>  <name>  (349) 
4-Chloroaniline

>  <Outcome>  (349) 
1

>  <Molecule (RDKit Mol) (InChI Code)>  (349) 
InChI=1S/C6H6ClN/c7-5-1-3-6(8)4-2-5/h1-4H,8H2

>  <reference>  (349) 
ToxValDB

>  <molecule_form>  (349) 
not specified

>  <ID>  (349) 


>  <SMILES>  (349) 
Nc1ccc(Cl)cc1

>  <ROMol>  (349) 
<rdkit.Chem.rdchem.Mol object at 0x0000027F58444890>

$$$$

     RDKit          2D

 14 13  0  0  0  0  0  0  0  0999 V2000
    2.1912    3.2780    0.0000 C   0  0  0  0  0  0  0  0  0  0  0  0
    1.4767    2.8655    0.0000 C   0  0  0  0  0  0  0  0  0  0  0  0
    1.4767    2.0405    0.0000 O   0  0  0  0  0  0  0  0  0  0  0  0
    0.7622    1.6280    0.0000 Si  0  0  0  0  0  4  0  0  0  0  0  0
    0.0478    1.2155    0.0000 C   0  0  0  0  0  0  0  0  0  0  0  0
   -0.6667    1.6280    0.0000 C   0  0  0  0  0  0  0  0  0  0  0  0
   -1.3812    1.2155    0.0000 C   0  0  0  0  0  0  0  0  0  0  0  0
   -0.6667    2.4530    0.0000 C   0  0  0  0  0  0  0  0  0  0  0  0
    0.3497    2.3424    0.0000 O   0  0  0  0  0  0  0  0  0  0  0  0
    0.7622    3.0569    0.0000 C   0  0  0  0  0  0  0  0  0  0  0  0
    0.3497    3.7714    0.0000 C   0  0  0  0  0  0  0  0  0  0  0  0
    1.1747    0.9135    0.0000 O   0  0  0  0  0  0  0  0  0  0  0  0
    0.7622    0.1990    0.0000 C   0  0  0  0  0  0  0  0  0  0  0  0
   -0.0628    0.1990    0.0000 C   0  0  0  0  0  0  0  0  0  0  0  0
  1  2  1  0
  2  3  1  0
  3  4  1  0
  4  5  1  0
  5  6  1  0
  6  7  1  0
  6  8  1  0
  4  9  1  0
  9 10  1  0
 10 11  1  0
  4 12  1  0
 12 13  1  0
 13 14  1  0
M  END
>  <id>  (350) 
4060

>  <casrn>  (350) 
17980-47-1

>  <smiles (First)>  (350) 


>  <Molecular weight>  (350) 
220.3812713623047

>  <name>  (350) 
triethoxy(2-methylpropyl)silane

>  <Outcome>  (350) 
0

>  <Molecule (RDKit Mol) (InChI Code)>  (350) 
InChI=1S/C10H24O3Si/c1-6-11-14(12-7-2,13-8-3)9-10(4)5/h10H,6-9H2,1-5H3

>  <reference>  (350) 
ECHA

>  <molecule_form>  (350) 
A

>  <ID>  (350) 


>  <SMILES>  (350) 
CCO[Si](CC(C)C)(OCC)OCC

>  <ROMol>  (350) 
<rdkit.Chem.rdchem.Mol object at 0x0000027F5842F0B0>

$$$$

     RDKit          2D

  8  8  0  0  0  0  0  0  0  0999 V2000
    0.7145    2.0625    0.0000 O   0  0  0  0  0  0  0  0  0  0  0  0
    0.7145    1.2375    0.0000 N   0  0  0  0  0  0  0  0  0  0  0  0
    1.4289    0.8250    0.0000 C   0  0  0  0  0  0  0  0  0  0  0  0
    1.4289   -0.0000    0.0000 C   0  0  0  0  0  0  0  0  0  0  0  0
    0.7145   -0.4125    0.0000 C   0  0  0  0  0  0  0  0  0  0  0  0
   -0.0000   -0.0000    0.0000 C   0  0  0  0  0  0  0  0  0  0  0  0
   -0.0000    0.8250    0.0000 C   0  0  0  0  0  0  0  0  0  0  0  0
   -0.7145    1.2375    0.0000 S   0  0  0  0  0  0  0  0  0  0  0  0
  1  2  1  0
  2  3  1  0
  3  4  2  0
  4  5  1  0
  5  6  2  0
  6  7  1  0
  2  7  1  0
  7  8  2  0
M  END
>  <id>  (351) 
3838; 4635

>  <casrn>  (351) 
3811-73-2

>  <smiles (First)>  (351) 


>  <Molecular weight>  (351) 
126.15635681152344

>  <name>  (351) 
sodium (1-oxo-1??????-pyridin-2-yl)sulfanide

>  <Outcome>  (351) 
1

>  <Molecule (RDKit Mol) (InChI Code)>  (351) 
InChI=1S/C5H5NOS/c7-6-4-2-1-3-5(6)8/h1-4,7H

>  <reference>  (351) 
ECHA

>  <molecule_form>  (351) 
A

>  <ID>  (351) 


>  <SMILES>  (351) 
On1ccccc1=S

>  <ROMol>  (351) 
<rdkit.Chem.rdchem.Mol object at 0x0000027F584AC820>

$$$$

     RDKit          2D

  7  6  0  0  0  0  0  0  0  0999 V2000
    2.0625    0.7145    0.0000 C   0  0  0  0  0  0  0  0  0  0  0  0
    1.2375    0.7145    0.0000 C   0  0  0  0  0  0  0  0  0  0  0  0
    0.8250    1.4289    0.0000 O   0  0  0  0  0  0  0  0  0  0  0  0
    0.8250    0.0000    0.0000 C   0  0  0  0  0  0  0  0  0  0  0  0
    0.0000    0.0000    0.0000 C   0  0  0  0  0  0  0  0  0  0  0  0
   -0.4125   -0.7145    0.0000 C   0  0  0  0  0  0  0  0  0  0  0  0
   -0.4125    0.7145    0.0000 O   0  0  0  0  0  0  0  0  0  0  0  0
  1  2  1  0
  2  3  2  0
  4  2  1  0
  4  5  2  3
  5  6  1  0
  5  7  1  0
M  END
>  <id>  (352) 
3697; 3696; 3698; 2748; 2747

>  <casrn>  (352) 
123-54-6

>  <smiles (First)>  (352) 


>  <Molecular weight>  (352) 
99.7126449584961

>  <name>  (352) 
pentane-2,4-dione

>  <Outcome>  (352) 
1

>  <Molecule (RDKit Mol) (InChI Code)>  (352) 
InChI=1S/C5H8O2/c1-4(6)3-5(2)7/h3,6H,1-2H3

>  <reference>  (352) 
ECHA

>  <molecule_form>  (352) 
V; A

>  <ID>  (352) 


>  <SMILES>  (352) 
CC(=O)C=C(C)O

>  <ROMol>  (352) 
<rdkit.Chem.rdchem.Mol object at 0x0000027F585E26D0>

$$$$

     RDKit          2D

 17 16  0  0  0  0  0  0  0  0999 V2000
    5.3142    4.0077    0.0000 C   0  0  0  0  0  0  0  0  0  0  0  0
    6.0287    3.5952    0.0000 C   0  0  0  0  0  0  0  0  0  0  0  0
    6.7432    4.0077    0.0000 C   0  0  0  0  0  0  0  0  0  0  0  0
    7.4576    3.5952    0.0000 C   0  0  0  0  0  0  0  0  0  0  0  0
    8.1721    4.0077    0.0000 C   0  0  0  0  0  0  0  0  0  0  0  0
    8.1721    4.8327    0.0000 C   0  0  0  0  0  0  0  0  0  0  0  0
    8.8866    5.2452    0.0000 C   0  0  0  0  0  0  0  0  0  0  0  0
    8.8866    3.5952    0.0000 C   0  0  0  0  0  0  0  0  0  0  0  0
    9.6011    4.0077    0.0000 N   0  0  0  0  0  0  0  0  0  0  0  0
   10.3155    3.5952    0.0000 C   0  0  0  0  0  0  0  0  0  0  0  0
   11.0300    4.0077    0.0000 C   0  0  0  0  0  0  0  0  0  0  0  0
   11.0300    4.8327    0.0000 C   0  0  0  0  0  0  0  0  0  0  0  0
   11.7445    5.2452    0.0000 C   0  0  0  0  0  0  0  0  0  0  0  0
   11.7445    3.5952    0.0000 C   0  0  0  0  0  0  0  0  0  0  0  0
   12.4589    4.0077    0.0000 C   0  0  0  0  0  0  0  0  0  0  0  0
   13.1734    3.5952    0.0000 C   0  0  0  0  0  0  0  0  0  0  0  0
   13.8879    4.0077    0.0000 C   0  0  0  0  0  0  0  0  0  0  0  0
  1  2  1  0
  2  3  1  0
  3  4  1  0
  4  5  1  0
  5  6  1  0
  6  7  1  0
  5  8  1  0
  8  9  1  0
  9 10  1  0
 10 11  1  0
 11 12  1  0
 12 13  1  0
 11 14  1  0
 14 15  1  0
 15 16  1  0
 16 17  1  0
M  END
>  <id>  (353) 
2649

>  <casrn>  (353) 
106-20-7

>  <smiles (First)>  (353) 


>  <Molecular weight>  (353) 
241.455810546875

>  <name>  (353) 
bis(2-ethylhexyl)amine

>  <Outcome>  (353) 
1

>  <Molecule (RDKit Mol) (InChI Code)>  (353) 
InChI=1S/C16H35N/c1-5-9-11-15(7-3)13-17-14-16(8-4)12-10-6-2/h15-17H,5-14H2,1-4H3

>  <reference>  (353) 
ECHA

>  <molecule_form>  (353) 
A

>  <ID>  (353) 


>  <SMILES>  (353) 
CCCCC(CC)CNCC(CC)CCCC

>  <ROMol>  (353) 
<rdkit.Chem.rdchem.Mol object at 0x0000027F585E20B0>

$$$$

     RDKit          2D

 28 30  0  0  0  0  0  0  0  0999 V2000
   -2.0461    0.3777    0.0000 O   0  0  0  0  0  0  0  0  0  0  0  0
   -1.3316   -0.0348    0.0000 C   0  0  0  0  0  0  0  0  0  0  0  0
   -0.6171   -0.4473    0.0000 N   0  0  0  0  0  0  0  0  0  0  0  0
   -0.6171   -1.2723    0.0000 C   0  0  0  0  0  0  0  0  0  0  0  0
    0.0973   -1.6848    0.0000 C   0  0  0  0  0  0  0  0  0  0  0  0
    0.0973   -2.5098    0.0000 C   0  0  0  0  0  0  0  0  0  0  0  0
   -0.6171   -2.9223    0.0000 C   0  0  0  0  0  0  0  0  0  0  0  0
   -0.6171   -3.7473    0.0000 C   0  0  0  0  0  0  0  0  0  0  0  0
   -1.3316   -4.1598    0.0000 C   0  0  0  0  0  0  0  0  0  0  0  0
   -1.3316   -4.9848    0.0000 C   0  0  0  0  0  0  0  0  0  0  0  0
   -2.0461   -5.3973    0.0000 C   0  0  0  0  0  0  0  0  0  0  0  0
   -2.7605   -4.9848    0.0000 C   0  0  0  0  0  0  0  0  0  0  0  0
   -3.4750   -5.3973    0.0000 N   0  0  0  0  0  0  0  0  0  0  0  0
   -3.4750   -6.2223    0.0000 C   0  0  0  0  0  0  0  0  0  0  0  0
   -3.4750   -7.0473    0.0000 O   0  0  0  0  0  0  0  0  0  0  0  0
   -2.7605   -4.1598    0.0000 C   0  0  0  0  0  0  0  0  0  0  0  0
   -2.0461   -3.7473    0.0000 C   0  0  0  0  0  0  0  0  0  0  0  0
    0.0973   -4.1598    0.0000 C   0  0  0  0  0  0  0  0  0  0  0  0
    0.8118   -3.7473    0.0000 C   0  0  0  0  0  0  0  0  0  0  0  0
    1.5263   -4.1598    0.0000 C   0  0  0  0  0  0  0  0  0  0  0  0
    1.5263   -4.9848    0.0000 C   0  0  0  0  0  0  0  0  0  0  0  0
    2.2408   -5.3973    0.0000 N   0  0  0  0  0  0  0  0  0  0  0  0
    2.2408   -6.2223    0.0000 C   0  0  0  0  0  0  0  0  0  0  0  0
    2.2408   -7.0473    0.0000 O   0  0  0  0  0  0  0  0  0  0  0  0
    0.8118   -5.3973    0.0000 C   0  0  0  0  0  0  0  0  0  0  0  0
    0.0973   -4.9848    0.0000 C   0  0  0  0  0  0  0  0  0  0  0  0
   -1.3316   -2.5098    0.0000 C   0  0  0  0  0  0  0  0  0  0  0  0
   -1.3316   -1.6848    0.0000 C   0  0  0  0  0  0  0  0  0  0  0  0
  1  2  2  0
  2  3  2  0
  3  4  1  0
  4  5  2  0
  5  6  1  0
  6  7  2  0
  7  8  1  0
  8  9  1  0
  9 10  2  0
 10 11  1  0
 11 12  2  0
 12 13  1  0
 13 14  2  0
 14 15  2  0
 12 16  1  0
 16 17  2  0
  9 17  1  0
  8 18  1  0
 18 19  2  0
 19 20  1  0
 20 21  2  0
 21 22  1  0
 22 23  2  0
 23 24  2  0
 21 25  1  0
 25 26  2  0
 18 26  1  0
  7 27  1  0
 27 28  2  0
  4 28  1  0
M  END
>  <id>  (354) 
868

>  <casrn>  (354) 
2422-91-5

>  <smiles (First)>  (354) 


>  <Molecular weight>  (354) 
367.35693359375

>  <name>  (354) 
1,1',1'-methanetriyltris(4-isocyanatobenzene)

>  <Outcome>  (354) 
1

>  <Molecule (RDKit Mol) (InChI Code)>  (354) 
InChI=1S/C22H13N3O3/c26-13-23-19-7-1-16(2-8-19)22(17-3-9-20(10-4-17)24-14-27)18-5-11-21(12-6-18)25-15-28/h1-12,22H

>  <reference>  (354) 
ECHA

>  <molecule_form>  (354) 
A

>  <ID>  (354) 


>  <SMILES>  (354) 
O=C=Nc1ccc(C(c2ccc(N=C=O)cc2)c2ccc(N=C=O)cc2)cc1

>  <ROMol>  (354) 
<rdkit.Chem.rdchem.Mol object at 0x0000027F624B1F90>

$$$$

     RDKit          2D

 20 23  0  0  0  0  0  0  0  0999 V2000
    1.9981   -4.0800    0.0000 O   0  0  0  0  0  0  0  0  0  0  0  0
    2.2530   -3.2954    0.0000 C   0  0  0  0  0  0  0  0  0  0  0  0
    1.7681   -2.6279    0.0000 C   0  0  0  0  0  0  0  0  0  0  0  0
    0.9431   -2.6279    0.0000 C   0  0  0  0  0  0  0  0  0  0  0  0
    0.4582   -3.2954    0.0000 N   0  0  0  0  0  0  0  0  0  0  0  0
   -0.3264   -3.0404    0.0000 C   0  0  0  0  0  0  0  0  0  0  0  0
   -1.0409   -3.4529    0.0000 C   0  0  0  0  0  0  0  0  0  0  0  0
   -1.7554   -3.0404    0.0000 C   0  0  0  0  0  0  0  0  0  0  0  0
   -1.7554   -2.2154    0.0000 C   0  0  0  0  0  0  0  0  0  0  0  0
   -1.0409   -1.8029    0.0000 C   0  0  0  0  0  0  0  0  0  0  0  0
   -0.3264   -2.2154    0.0000 C   0  0  0  0  0  0  0  0  0  0  0  0
    0.4582   -1.9605    0.0000 C   0  0  0  0  0  0  0  0  0  0  0  0
    0.7131   -1.1759    0.0000 O   0  0  0  0  0  0  0  0  0  0  0  0
    2.2530   -1.9605    0.0000 N   0  0  0  0  0  0  0  0  0  0  0  0
    3.0376   -2.2154    0.0000 C   0  0  0  0  0  0  0  0  0  0  0  0
    3.7521   -1.8029    0.0000 C   0  0  0  0  0  0  0  0  0  0  0  0
    4.4666   -2.2154    0.0000 C   0  0  0  0  0  0  0  0  0  0  0  0
    4.4666   -3.0404    0.0000 C   0  0  0  0  0  0  0  0  0  0  0  0
    3.7521   -3.4529    0.0000 C   0  0  0  0  0  0  0  0  0  0  0  0
    3.0376   -3.0404    0.0000 C   0  0  0  0  0  0  0  0  0  0  0  0
  1  2  2  0
  3  2  1  0
  3  4  2  3
  4  5  1  0
  5  6  1  0
  6  7  2  0
  7  8  1  0
  8  9  2  0
  9 10  1  0
 10 11  2  0
  6 11  1  0
 11 12  1  0
  4 12  1  0
 12 13  2  0
  3 14  1  0
 14 15  1  0
 15 16  2  0
 16 17  1  0
 17 18  2  0
 18 19  1  0
 19 20  2  0
 15 20  1  0
  2 20  1  0
M  END
>  <id>  (355) 
1237

>  <casrn>  (355) 
482-89-3

>  <smiles (First)>  (355) 


>  <Molecular weight>  (355) 
262.2628173828125

>  <name>  (355) 
2,2'-biindole-3,3'(1H,1'H)-dione

>  <Outcome>  (355) 
0

>  <Molecule (RDKit Mol) (InChI Code)>  (355) 
InChI=1S/C16H10N2O2/c19-15-9-5-1-3-7-11(9)17-13(15)14-16(20)10-6-2-4-8-12(10)18-14/h1-8,17-18H

>  <reference>  (355) 
ECHA

>  <molecule_form>  (355) 
A

>  <ID>  (355) 


>  <SMILES>  (355) 
O=C1C(=C2Nc3ccccc3C2=O)Nc2ccccc21

>  <ROMol>  (355) 
<rdkit.Chem.rdchem.Mol object at 0x0000027F584374A0>

$$$$

     RDKit          2D

 32 33  0  0  0  0  0  0  0  0999 V2000
   -7.1547   -5.4995    0.0000 C   0  0  0  0  0  0  0  0  0  0  0  0
   -6.6146   -4.8758    0.0000 C   0  0  0  0  0  0  0  0  0  0  0  0
   -5.8045   -5.0318    0.0000 C   0  0  0  0  0  0  0  0  0  0  0  0
   -5.2644   -4.4081    0.0000 C   0  0  0  0  0  0  0  0  0  0  0  0
   -4.4543   -4.5640    0.0000 C   0  0  0  0  0  0  0  0  0  0  0  0
   -3.9142   -3.9404    0.0000 C   0  0  0  0  0  0  0  0  0  0  0  0
   -3.1040   -4.0963    0.0000 C   0  0  0  0  0  0  0  0  0  0  0  0
   -2.5639   -3.4726    0.0000 C   0  0  0  0  0  0  0  0  0  0  0  0
   -1.7538   -3.6286    0.0000 C   0  0  0  0  0  0  0  0  0  0  0  0
   -1.2137   -3.0049    0.0000 C   0  0  0  0  0  0  0  0  0  0  0  0
   -1.4838   -2.2254    0.0000 C   0  0  0  0  0  0  0  0  0  0  0  0
   -0.9437   -1.6017    0.0000 C   0  0  0  0  0  0  0  0  0  0  0  0
   -1.2137   -0.8222    0.0000 C   0  0  0  0  0  0  0  0  0  0  0  0
   -0.6736   -0.1985    0.0000 C   0  0  0  0  0  0  0  0  0  0  0  0
    0.1365   -0.3544    0.0000 C   0  0  0  0  0  0  0  0  0  0  0  0
    0.4065   -1.1340    0.0000 C   0  0  0  0  0  0  0  0  0  0  0  0
   -0.1335   -1.7576    0.0000 C   0  0  0  0  0  0  0  0  0  0  0  0
    0.1365   -2.5372    0.0000 C   0  0  0  0  0  0  0  0  0  0  0  0
   -0.4036   -3.1608    0.0000 C   0  0  0  0  0  0  0  0  0  0  0  0
   -0.1335   -3.9404    0.0000 C   0  0  0  0  0  0  0  0  0  0  0  0
   -0.6736   -4.5640    0.0000 C   0  0  0  0  0  0  0  0  0  0  0  0
   -0.4036   -5.3436    0.0000 C   0  0  0  0  0  0  0  0  0  0  0  0
    0.4065   -5.4995    0.0000 C   0  0  0  0  0  0  0  0  0  0  0  0
    0.9466   -4.8758    0.0000 C   0  0  0  0  0  0  0  0  0  0  0  0
    1.7568   -5.0318    0.0000 C   0  0  0  0  0  0  0  0  0  0  0  0
    2.2969   -4.4081    0.0000 C   0  0  0  0  0  0  0  0  0  0  0  0
    3.1070   -4.5640    0.0000 C   0  0  0  0  0  0  0  0  0  0  0  0
    3.6471   -3.9404    0.0000 C   0  0  0  0  0  0  0  0  0  0  0  0
    0.9466   -2.6931    0.0000 S   0  0  0  0  0  0  0  0  0  0  0  0
    1.7568   -2.8490    0.0000 O   0  0  0  0  0  0  0  0  0  0  0  0
    0.7907   -3.5032    0.0000 O   0  0  0  0  0  0  0  0  0  0  0  0
    1.1025   -1.8830    0.0000 O   0  0  0  0  0  0  0  0  0  0  0  0
  1  2  1  0
  2  3  1  0
  3  4  1  0
  4  5  1  0
  5  6  1  0
  6  7  1  0
  7  8  1  0
  8  9  1  0
  9 10  1  0
 11 10  2  0
 12 11  1  0
 12 13  2  0
 13 14  1  0
 14 15  2  0
 15 16  1  0
 16 17  2  0
 18 17  1  0
 19 18  2  0
 19 20  1  0
 20 21  1  0
 21 22  1  0
 22 23  1  0
 23 24  1  0
 24 25  1  0
 25 26  1  0
 26 27  1  0
 27 28  1  0
 18 29  1  0
 29 30  1  0
 29 31  2  0
 29 32  2  0
 10 19  1  0
 17 12  1  0
M  END
>  <id>  (356) 
798150

>  <casrn>  (356) 
25322-17-2

>  <smiles (First)>  (356) 
CCCCCCCCCc1cc2ccccc2c(c1CCCCCCCCC)[S](O)(=O)=O

>  <Molecular weight>  (356) 
460.712158203125

>  <name>  (356) 
Dinonylnaphthalenesulfonic acid

>  <Outcome>  (356) 
0

>  <Molecule (RDKit Mol) (InChI Code)>  (356) 
InChI=1S/C28H44O3S/c1-3-5-7-9-11-13-15-19-24-23-25-20-17-18-22-27(25)28(32(29,30)31)26(24)21-16-14-12-10-8-6-4-2/h17-18,20,22-23H,3-16,19,21H2,1-2H3,(H,29,30,31)

>  <reference>  (356) 
ToxValDB

>  <molecule_form>  (356) 
not specified

>  <ID>  (356) 


>  <SMILES>  (356) 
CCCCCCCCCc1cc2ccccc2c(S(=O)(=O)O)c1CCCCCCCCC

>  <ROMol>  (356) 
<rdkit.Chem.rdchem.Mol object at 0x0000027F78D93AC0>

$$$$

     RDKit          2D

  7  7  0  0  0  0  0  0  0  0999 V2000
    0.7145    2.0625    0.0000 C   0  0  0  0  0  0  0  0  0  0  0  0
    0.7145    1.2375    0.0000 C   0  0  0  0  0  0  0  0  0  0  0  0
    1.4289    0.8250    0.0000 C   0  0  0  0  0  0  0  0  0  0  0  0
    1.4289   -0.0000    0.0000 C   0  0  0  0  0  0  0  0  0  0  0  0
    0.7145   -0.4125    0.0000 C   0  0  0  0  0  0  0  0  0  0  0  0
    0.0000   -0.0000    0.0000 C   0  0  0  0  0  0  0  0  0  0  0  0
    0.0000    0.8250    0.0000 N   0  0  0  0  0  0  0  0  0  0  0  0
  1  2  1  0
  2  3  2  0
  3  4  1  0
  4  5  2  0
  5  6  1  0
  6  7  2  0
  2  7  1  0
M  END
>  <id>  (357) 
1679

>  <casrn>  (357) 
109-06-8

>  <smiles (First)>  (357) 


>  <Molecular weight>  (357) 
93.12648010253906

>  <name>  (357) 
2-methylpyridine

>  <Outcome>  (357) 
1

>  <Molecule (RDKit Mol) (InChI Code)>  (357) 
InChI=1S/C6H7N/c1-6-4-2-3-5-7-6/h2-5H,1H3

>  <reference>  (357) 
ECHA

>  <molecule_form>  (357) 
V

>  <ID>  (357) 


>  <SMILES>  (357) 
Cc1ccccn1

>  <ROMol>  (357) 
<rdkit.Chem.rdchem.Mol object at 0x0000027F6246B580>

$$$$

     RDKit          2D

  7  7  0  0  0  0  0  0  0  0999 V2000
    0.8556    1.3610    0.0000 C   0  0  0  0  0  0  0  0  0  0  0  0
    1.5989    1.0031    0.0000 C   0  0  0  0  0  0  0  0  0  0  0  0
    1.7824    0.1987    0.0000 C   0  0  0  0  0  0  0  0  0  0  0  0
    1.2681   -0.4463    0.0000 O   0  0  0  0  0  0  0  0  0  0  0  0
    0.4431   -0.4463    0.0000 C   0  0  0  0  0  0  0  0  0  0  0  0
   -0.0713    0.1987    0.0000 O   0  0  0  0  0  0  0  0  0  0  0  0
    0.1123    1.0031    0.0000 C   0  0  0  0  0  0  0  0  0  0  0  0
  1  2  1  0
  2  3  1  0
  3  4  1  0
  4  5  1  0
  5  6  1  0
  6  7  1  0
  1  7  1  0
M  END
>  <id>  (358) 
993

>  <casrn>  (358) 
505-65-7

>  <smiles (First)>  (358) 


>  <Molecular weight>  (358) 
102.13169860839844

>  <name>  (358) 
1,3-dioxepane

>  <Outcome>  (358) 
0

>  <Molecule (RDKit Mol) (InChI Code)>  (358) 
InChI=1S/C5H10O2/c1-2-4-7-5-6-3-1/h1-5H2

>  <reference>  (358) 
ECHA

>  <molecule_form>  (358) 
V

>  <ID>  (358) 


>  <SMILES>  (358) 
C1CCOCOC1

>  <ROMol>  (358) 
<rdkit.Chem.rdchem.Mol object at 0x0000027F624635F0>

$$$$

     RDKit          2D

  5  4  0  0  0  0  0  0  0  0999 V2000
    2.0625   -0.7145    0.0000 C   0  0  0  0  0  0  0  0  0  0  0  0
    1.6500    0.0000    0.0000 C   0  0  0  0  0  0  0  0  0  0  0  0
    2.0625    0.7145    0.0000 C   0  0  0  0  0  0  0  0  0  0  0  0
    0.8250    0.0000    0.0000 C   0  0  0  0  0  0  0  0  0  0  0  0
   -0.0000    0.0000    0.0000 N   0  0  0  0  0  0  0  0  0  0  0  0
  1  2  2  0
  2  3  1  0
  2  4  1  0
  4  5  3  0
M  END
>  <id>  (359) 
3413; 3412; 3414; 3411

>  <casrn>  (359) 
126-98-7

>  <smiles (First)>  (359) 


>  <Molecular weight>  (359) 
67.08920288085938

>  <name>  (359) 
methacrylonitrile

>  <Outcome>  (359) 
1

>  <Molecule (RDKit Mol) (InChI Code)>  (359) 
InChI=1S/C4H5N/c1-4(2)3-5/h1H2,2H3

>  <reference>  (359) 
ECHA

>  <molecule_form>  (359) 
V

>  <ID>  (359) 


>  <SMILES>  (359) 
C=C(C)C#N

>  <ROMol>  (359) 
<rdkit.Chem.rdchem.Mol object at 0x0000027F5843AB30>

$$$$

     RDKit          2D

  8  7  0  0  0  0  0  0  0  0999 V2000
    1.0461    1.4289    0.0000 C   0  0  0  0  0  0  0  0  0  0  0  0
    1.7605    1.8414    0.0000 C   0  0  0  0  0  0  0  0  0  0  0  0
    2.4750    1.4289    0.0000 C   0  0  0  0  0  0  0  0  0  0  0  0
    3.1895    1.8414    0.0000 C   0  0  0  0  0  0  0  0  0  0  0  0
    3.9039    1.4289    0.0000 C   0  0  0  0  0  0  0  0  0  0  0  0
    4.6184    1.8414    0.0000 C   0  0  0  0  0  0  0  0  0  0  0  0
    5.3329    1.4289    0.0000 C   0  0  0  0  0  0  0  0  0  0  0  0
    6.0474    1.8414    0.0000 C   0  0  0  0  0  0  0  0  0  0  0  0
  1  2  2  0
  2  3  1  0
  3  4  1  0
  4  5  1  0
  5  6  1  0
  6  7  1  0
  7  8  2  0
M  END
>  <id>  (360) 
3564

>  <casrn>  (360) 
3710-30-3

>  <smiles (First)>  (360) 


>  <Molecular weight>  (360) 
110.19676208496094

>  <name>  (360) 
octa-1,7-diene

>  <Outcome>  (360) 
0

>  <Molecule (RDKit Mol) (InChI Code)>  (360) 
InChI=1S/C8H14/c1-3-5-7-8-6-4-2/h3-4H,1-2,5-8H2

>  <reference>  (360) 
ECHA

>  <molecule_form>  (360) 
V

>  <ID>  (360) 


>  <SMILES>  (360) 
C=CCCCCC=C

>  <ROMol>  (360) 
<rdkit.Chem.rdchem.Mol object at 0x0000027F584D5740>

$$$$

     RDKit          2D

  4  3  0  0  0  0  0  0  0  0999 V2000
    2.0625   -0.7145    0.0000 O   0  0  0  0  0  0  0  0  0  0  0  0
    1.2375   -0.7145    0.0000 C   0  0  0  0  0  0  0  0  0  0  0  0
    0.8250   -0.0000    0.0000 C   0  0  0  0  0  0  0  0  0  0  0  0
    0.0000   -0.0000    0.0000 O   0  0  0  0  0  0  0  0  0  0  0  0
  1  2  2  0
  2  3  1  0
  3  4  2  0
M  END
>  <id>  (361) 
3640; 3638; 3639

>  <casrn>  (361) 
107-22-2

>  <smiles (First)>  (361) 


>  <Molecular weight>  (361) 
58.03607940673828

>  <name>  (361) 
oxaldehyde

>  <Outcome>  (361) 
1

>  <Molecule (RDKit Mol) (InChI Code)>  (361) 
InChI=1S/C2H2O2/c3-1-2-4/h1-2H

>  <reference>  (361) 
ECHA

>  <molecule_form>  (361) 
A

>  <ID>  (361) 


>  <SMILES>  (361) 
O=CC=O

>  <ROMol>  (361) 
<rdkit.Chem.rdchem.Mol object at 0x0000027F624DD7B0>

$$$$

     RDKit          2D

 46 54  0  0  0  0  0  0  0  0999 V2000
    6.8211    3.0789    0.0000 C   0  0  0  0  0  0  0  0  0  0  0  0
    6.4086    2.3645    0.0000 C   0  0  0  0  0  0  0  0  0  0  0  0
    6.8211    1.6500    0.0000 C   0  0  0  0  0  0  0  0  0  0  0  0
    6.4086    0.9355    0.0000 C   0  0  0  0  0  0  0  0  0  0  0  0
    6.8211    0.2211    0.0000 C   0  0  0  0  0  0  0  0  0  0  0  0
    5.5836    0.9355    0.0000 C   0  0  0  0  0  0  0  0  0  0  0  0
    5.1711    1.6500    0.0000 C   0  0  0  0  0  0  0  0  0  0  0  0
    4.3461    1.6500    0.0000 N   0  0  0  0  0  0  0  0  0  0  0  0
    3.9336    0.9355    0.0000 C   0  0  0  0  0  0  0  0  0  0  0  0
    4.3461    0.2211    0.0000 O   0  0  0  0  0  0  0  0  0  0  0  0
    3.1086    0.9355    0.0000 C   0  0  0  0  0  0  0  0  0  0  0  0
    2.6961    0.2211    0.0000 C   0  0  0  0  0  0  0  0  0  0  0  0
    1.8711    0.2211    0.0000 C   0  0  0  0  0  0  0  0  0  0  0  0
    1.4586    0.9355    0.0000 C   0  0  0  0  0  0  0  0  0  0  0  0
    0.6336    0.9355    0.0000 C   0  0  0  0  0  0  0  0  0  0  0  0
    0.2211    0.2211    0.0000 C   0  0  0  0  0  0  0  0  0  0  0  0
   -0.6039    0.2211    0.0000 C   0  0  0  0  0  0  0  0  0  0  0  0
   -1.0164    0.9355    0.0000 C   0  0  0  0  0  0  0  0  0  0  0  0
   -1.8414    0.9355    0.0000 C   0  0  0  0  0  0  0  0  0  0  0  0
   -2.2539    0.2211    0.0000 O   0  0  0  0  0  0  0  0  0  0  0  0
   -2.2539    1.6500    0.0000 N   0  0  0  0  0  0  0  0  0  0  0  0
   -3.0789    1.6500    0.0000 C   0  0  0  0  0  0  0  0  0  0  0  0
   -3.4914    0.9355    0.0000 C   0  0  0  0  0  0  0  0  0  0  0  0
   -4.3164    0.9355    0.0000 C   0  0  0  0  0  0  0  0  0  0  0  0
   -4.7289    0.2211    0.0000 C   0  0  0  0  0  0  0  0  0  0  0  0
   -4.7289    1.6500    0.0000 C   0  0  0  0  0  0  0  0  0  0  0  0
   -4.3164    2.3645    0.0000 C   0  0  0  0  0  0  0  0  0  0  0  0
   -4.7289    3.0789    0.0000 C   0  0  0  0  0  0  0  0  0  0  0  0
   -3.4914    2.3645    0.0000 C   0  0  0  0  0  0  0  0  0  0  0  0
   -1.8414    2.3645    0.0000 C   0  0  0  0  0  0  0  0  0  0  0  0
   -2.2539    3.0789    0.0000 O   0  0  0  0  0  0  0  0  0  0  0  0
   -1.0164    2.3645    0.0000 C   0  0  0  0  0  0  0  0  0  0  0  0
   -0.6039    3.0789    0.0000 C   0  0  0  0  0  0  0  0  0  0  0  0
    0.2211    3.0789    0.0000 C   0  0  0  0  0  0  0  0  0  0  0  0
    0.6336    2.3645    0.0000 C   0  0  0  0  0  0  0  0  0  0  0  0
    1.4586    2.3645    0.0000 C   0  0  0  0  0  0  0  0  0  0  0  0
    1.8711    3.0789    0.0000 C   0  0  0  0  0  0  0  0  0  0  0  0
    2.6961    3.0789    0.0000 C   0  0  0  0  0  0  0  0  0  0  0  0
    3.1086    2.3645    0.0000 C   0  0  0  0  0  0  0  0  0  0  0  0
    3.9336    2.3645    0.0000 C   0  0  0  0  0  0  0  0  0  0  0  0
    4.3461    3.0789    0.0000 O   0  0  0  0  0  0  0  0  0  0  0  0
    2.6961    1.6500    0.0000 C   0  0  0  0  0  0  0  0  0  0  0  0
    1.8711    1.6500    0.0000 C   0  0  0  0  0  0  0  0  0  0  0  0
    0.2211    1.6500    0.0000 C   0  0  0  0  0  0  0  0  0  0  0  0
   -0.6039    1.6500    0.0000 C   0  0  0  0  0  0  0  0  0  0  0  0
    5.5836    2.3645    0.0000 C   0  0  0  0  0  0  0  0  0  0  0  0
  1  2  1  0
  2  3  2  0
  3  4  1  0
  4  5  1  0
  4  6  2  0
  6  7  1  0
  7  8  1  0
  8  9  1  0
  9 10  2  0
  9 11  1  0
 11 12  2  0
 12 13  1  0
 13 14  2  0
 14 15  1  0
 15 16  2  0
 16 17  1  0
 17 18  2  0
 18 19  1  0
 19 20  2  0
 19 21  1  0
 21 22  1  0
 22 23  2  0
 23 24  1  0
 24 25  1  0
 24 26  2  0
 26 27  1  0
 27 28  1  0
 27 29  2  0
 22 29  1  0
 21 30  1  0
 30 31  2  0
 30 32  1  0
 32 33  2  0
 33 34  1  0
 34 35  2  0
 35 36  1  0
 36 37  1  0
 37 38  2  0
 38 39  1  0
 39 40  1  0
  8 40  1  0
 40 41  2  0
 39 42  2  0
 11 42  1  0
 42 43  1  0
 14 43  1  0
 36 43  2  0
 35 44  1  0
 15 44  1  0
 44 45  2  0
 18 45  1  0
 32 45  1  0
  7 46  2  0
  2 46  1  0
M  END
>  <id>  (362) 
1886

>  <casrn>  (362) 
4948-15-6

>  <smiles (First)>  (362) 


>  <Molecular weight>  (362) 
598.6454467773438

>  <name>  (362) 
7,18-bis(3,5-dimethylphenyl)-7,18-diazaheptacyclo[14.6.2.2??,????.0??,????.0????,????.0????,????.0??????,??????]hexacosa-1(22),2,4,9,11,13(23),14,16(24),20,25-decaene-6,8,17,19-tetrone

>  <Outcome>  (362) 
0

>  <Molecule (RDKit Mol) (InChI Code)>  (362) 
InChI=1S/C40H26N2O4/c1-19-13-20(2)16-23(15-19)41-37(43)29-9-5-25-27-7-11-31-36-32(40(46)42(39(31)45)24-17-21(3)14-22(4)18-24)12-8-28(34(27)36)26-6-10-30(38(41)44)35(29)33(25)26/h5-18H,1-4H3

>  <reference>  (362) 
ECHA

>  <molecule_form>  (362) 
A

>  <ID>  (362) 


>  <SMILES>  (362) 
Cc1cc(C)cc(N2C(=O)c3ccc4c5ccc6c7c(ccc(c8ccc(c3c48)C2=O)c75)C(=O)N(c2cc(C)cc(C)c2)C6=O)c1

>  <ROMol>  (362) 
<rdkit.Chem.rdchem.Mol object at 0x0000027F584376D0>

$$$$

     RDKit          2D

  4  3  0  0  0  0  0  0  0  0999 V2000
    1.2375    0.7145    0.0000 C   0  0  0  0  0  0  0  0  0  0  0  0
    0.8250   -0.0000    0.0000 C   0  0  0  0  0  0  0  0  0  0  0  0
    1.2375   -0.7145    0.0000 C   0  0  0  0  0  0  0  0  0  0  0  0
   -0.0000   -0.0000    0.0000 O   0  0  0  0  0  0  0  0  0  0  0  0
  1  2  1  0
  2  3  1  0
  2  4  2  0
M  END
>  <id>  (363) 
3794

>  <casrn>  (363) 
67-64-1

>  <smiles (First)>  (363) 


>  <Molecular weight>  (363) 
58.079139709472656

>  <name>  (363) 
propan-2-one

>  <Outcome>  (363) 
0

>  <Molecule (RDKit Mol) (InChI Code)>  (363) 
InChI=1S/C3H6O/c1-3(2)4/h1-2H3

>  <reference>  (363) 
ECHA

>  <molecule_form>  (363) 
V

>  <ID>  (363) 


>  <SMILES>  (363) 
CC(C)=O

>  <ROMol>  (363) 
<rdkit.Chem.rdchem.Mol object at 0x0000027F62463E40>

$$$$

     RDKit          2D

  6  5  0  0  0  0  0  0  0  0999 V2000
    0.8250    1.4289    0.0000 O   0  0  0  0  0  0  0  0  0  0  0  0
    1.2375    0.7145    0.0000 C   0  0  0  0  0  0  0  0  0  0  0  0
    2.0625    0.7145    0.0000 O   0  0  0  0  0  0  0  0  0  0  0  0
    0.8250    0.0000    0.0000 C   0  0  0  0  0  0  0  0  0  0  0  0
    1.2375   -0.7145    0.0000 F   0  0  0  0  0  0  0  0  0  0  0  0
    0.0000    0.0000    0.0000 F   0  0  0  0  0  0  0  0  0  0  0  0
  1  2  2  0
  2  3  1  0
  2  4  1  0
  4  5  1  0
  4  6  1  0
M  END
>  <id>  (364) 
2970

>  <casrn>  (364) 
381-73-7

>  <smiles (First)>  (364) 


>  <Molecular weight>  (364) 
96.03289031982422

>  <name>  (364) 
difluoroacetic acid

>  <Outcome>  (364) 
1

>  <Molecule (RDKit Mol) (InChI Code)>  (364) 
InChI=1S/C2H2F2O2/c3-1(4)2(5)6/h1H,(H,5,6)

>  <reference>  (364) 
ECHA

>  <molecule_form>  (364) 
A

>  <ID>  (364) 


>  <SMILES>  (364) 
O=C(O)C(F)F

>  <ROMol>  (364) 
<rdkit.Chem.rdchem.Mol object at 0x0000027F583F4C10>

$$$$

     RDKit          2D

 18 17  0  0  0  0  0  0  0  0999 V2000
    2.2371    0.6870    0.0000 C   0  0  0  0  0  0  0  0  0  0  0  0
    2.2371    1.5120    0.0000 C   0  0  0  0  0  0  0  0  0  0  0  0
    1.5226    1.9245    0.0000 O   0  0  0  0  0  0  0  0  0  0  0  0
    0.8082    1.5120    0.0000 Si  0  0  0  0  0  4  0  0  0  0  0  0
    0.0937    1.0995    0.0000 C   0  0  0  0  0  0  0  0  0  0  0  0
   -0.6208    1.5120    0.0000 C   0  0  0  0  0  0  0  0  0  0  0  0
   -1.3352    1.0995    0.0000 C   0  0  0  0  0  0  0  0  0  0  0  0
   -0.6208    2.3370    0.0000 C   0  0  0  0  0  0  0  0  0  0  0  0
   -1.3352    2.7495    0.0000 C   0  0  0  0  0  0  0  0  0  0  0  0
   -2.0497    3.1620    0.0000 C   0  0  0  0  0  0  0  0  0  0  0  0
   -0.9227    3.4640    0.0000 C   0  0  0  0  0  0  0  0  0  0  0  0
   -1.7477    2.0351    0.0000 C   0  0  0  0  0  0  0  0  0  0  0  0
    0.3957    2.2265    0.0000 O   0  0  0  0  0  0  0  0  0  0  0  0
    0.8082    2.9410    0.0000 C   0  0  0  0  0  0  0  0  0  0  0  0
    1.6332    2.9410    0.0000 C   0  0  0  0  0  0  0  0  0  0  0  0
    1.2207    0.7976    0.0000 O   0  0  0  0  0  0  0  0  0  0  0  0
    0.8082    0.0831    0.0000 C   0  0  0  0  0  0  0  0  0  0  0  0
   -0.0168    0.0831    0.0000 C   0  0  0  0  0  0  0  0  0  0  0  0
  1  2  1  0
  2  3  1  0
  3  4  1  0
  4  5  1  0
  5  6  1  0
  6  7  1  0
  6  8  1  0
  8  9  1  0
  9 10  1  0
  9 11  1  0
  9 12  1  0
  4 13  1  0
 13 14  1  0
 14 15  1  0
  4 16  1  0
 16 17  1  0
 17 18  1  0
M  END
>  <id>  (365) 
4059

>  <casrn>  (365) 
35435-21-3

>  <smiles (First)>  (365) 


>  <Molecular weight>  (365) 
276.4875793457031

>  <name>  (365) 
triethoxy(2,4,4-trimethylpentyl)silane

>  <Outcome>  (365) 
0

>  <Molecule (RDKit Mol) (InChI Code)>  (365) 
InChI=1S/C14H32O3Si/c1-8-15-18(16-9-2,17-10-3)12-13(4)11-14(5,6)7/h13H,8-12H2,1-7H3

>  <reference>  (365) 
ECHA

>  <molecule_form>  (365) 
A

>  <ID>  (365) 


>  <SMILES>  (365) 
CCO[Si](CC(C)CC(C)(C)C)(OCC)OCC

>  <ROMol>  (365) 
<rdkit.Chem.rdchem.Mol object at 0x0000027F5C144200>

$$$$

     RDKit          2D

 11 10  0  0  0  0  0  0  0  0999 V2000
    2.9146    2.4767    0.0000 C   0  0  0  0  0  0  0  0  0  0  0  0
    3.6291    2.0642    0.0000 C   0  0  0  0  0  0  0  0  0  0  0  0
    3.6291    1.2392    0.0000 C   0  0  0  0  0  0  0  0  0  0  0  0
    4.3436    2.4767    0.0000 C   0  0  0  0  0  0  0  0  0  0  0  0
    5.0580    2.0642    0.0000 C   0  0  0  0  0  0  0  0  0  0  0  0
    5.7725    2.4767    0.0000 O   0  0  0  0  0  0  0  0  0  0  0  0
    6.4870    2.0642    0.0000 C   0  0  0  0  0  0  0  0  0  0  0  0
    7.2015    2.4767    0.0000 C   0  0  0  0  0  0  0  0  0  0  0  0
    7.9159    2.0642    0.0000 C   0  0  0  0  0  0  0  0  0  0  0  0
    8.6304    2.4767    0.0000 C   0  0  0  0  0  0  0  0  0  0  0  0
    7.9159    1.2392    0.0000 C   0  0  0  0  0  0  0  0  0  0  0  0
  1  2  1  0
  2  3  1  0
  2  4  1  0
  4  5  1  0
  5  6  1  0
  6  7  1  0
  7  8  1  0
  8  9  1  0
  9 10  1  0
  9 11  1  0
M  END
>  <id>  (366) 
873

>  <casrn>  (366) 
544-01-4

>  <smiles (First)>  (366) 


>  <Molecular weight>  (366) 
158.2810821533203

>  <name>  (366) 
1,1'-oxybis(3-methylbutane)

>  <Outcome>  (366) 
1

>  <Molecule (RDKit Mol) (InChI Code)>  (366) 
InChI=1S/C10H22O/c1-9(2)5-7-11-8-6-10(3)4/h9-10H,5-8H2,1-4H3

>  <reference>  (366) 
ECHA

>  <molecule_form>  (366) 
V

>  <ID>  (366) 


>  <SMILES>  (366) 
CC(C)CCOCCC(C)C

>  <ROMol>  (366) 
<rdkit.Chem.rdchem.Mol object at 0x0000027F6246B900>

$$$$

     RDKit          2D

 12 12  0  0  0  0  0  0  0  0999 V2000
   -0.0000    2.4750    0.0000 O   0  0  0  0  0  0  0  0  0  0  0  0
    0.7145    2.0625    0.0000 C   0  0  0  0  0  0  0  0  0  0  0  0
    1.4289    2.4750    0.0000 O   0  0  0  0  0  0  0  0  0  0  0  0
    0.7145    1.2375    0.0000 C   0  0  0  0  0  0  0  0  0  0  0  0
    1.4289    0.8250    0.0000 C   0  0  0  0  0  0  0  0  0  0  0  0
    1.4289    0.0000    0.0000 C   0  0  0  0  0  0  0  0  0  0  0  0
    2.1434   -0.4125    0.0000 F   0  0  0  0  0  0  0  0  0  0  0  0
    0.7145   -0.4125    0.0000 C   0  0  0  0  0  0  0  0  0  0  0  0
    0.7145   -1.2375    0.0000 Br  0  0  0  0  0  0  0  0  0  0  0  0
   -0.0000    0.0000    0.0000 C   0  0  0  0  0  0  0  0  0  0  0  0
   -0.0000    0.8250    0.0000 C   0  0  0  0  0  0  0  0  0  0  0  0
   -0.7145    1.2375    0.0000 Cl  0  0  0  0  0  0  0  0  0  0  0  0
  1  2  2  0
  2  3  1  0
  2  4  1  0
  4  5  2  0
  5  6  1  0
  6  7  1  0
  6  8  2  0
  8  9  1  0
  8 10  1  0
 10 11  2  0
  4 11  1  0
 11 12  1  0
M  END
>  <id>  (367) 
958

>  <casrn>  (367) 
64742-95-6

>  <smiles (First)>  (367) 


>  <Molecular weight>  (367) 
253.4529266357422

>  <name>  (367) 
1,3,5-trimethylbenzene; 1-ethyl-4-methylbenzene; prop-1-en-2-ylbenzene; propan-2-ylbenzene; propylbenzene

>  <Outcome>  (367) 
1

>  <Molecule (RDKit Mol) (InChI Code)>  (367) 
InChI=1S/C7H3BrClFO2/c8-4-2-5(9)3(7(11)12)1-6(4)10/h1-2H,(H,11,12)

>  <reference>  (367) 
ECHA

>  <molecule_form>  (367) 
V

>  <ID>  (367) 


>  <SMILES>  (367) 
O=C(O)c1cc(F)c(Br)cc1Cl

>  <ROMol>  (367) 
<rdkit.Chem.rdchem.Mol object at 0x0000027F5C1492E0>

$$$$

     RDKit          2D

  5  5  0  0  0  0  0  0  0  0999 V2000
    0.7140    0.1661    0.0000 C   0  0  0  0  0  0  0  0  0  0  0  0
    0.0466    0.6510    0.0000 C   0  0  0  0  0  0  0  0  0  0  0  0
   -0.6208    0.1661    0.0000 C   0  0  0  0  0  0  0  0  0  0  0  0
   -0.3659   -0.6185    0.0000 O   0  0  0  0  0  0  0  0  0  0  0  0
    0.4591   -0.6185    0.0000 C   0  0  0  0  0  0  0  0  0  0  0  0
  2  1  1  0
  3  2  1  0
  4  3  1  0
  5  4  1  0
  1  5  1  0
M  END
>  <id>  (368) 
205885

>  <casrn>  (368) 
109-99-9

>  <smiles (First)>  (368) 
C1CCOC1

>  <Molecular weight>  (368) 
72.10572052001953

>  <name>  (368) 
Tetrahydrofuran

>  <Outcome>  (368) 
0

>  <Molecule (RDKit Mol) (InChI Code)>  (368) 
InChI=1S/C4H8O/c1-2-4-5-3-1/h1-4H2

>  <reference>  (368) 
ToxValDB

>  <molecule_form>  (368) 
not specified

>  <ID>  (368) 


>  <SMILES>  (368) 
C1CCOC1

>  <ROMol>  (368) 
<rdkit.Chem.rdchem.Mol object at 0x0000027F78E26BA0>

$$$$

     RDKit          2D

  8  7  0  0  0  0  0  0  0  0999 V2000
    0.0000   -0.0022    0.0000 C   0  0  0  0  0  0  0  0  0  0  0  0
    0.7145    0.4103    0.0000 O   0  0  0  0  0  0  0  0  0  0  0  0
    1.4290   -0.0022    0.0000 C   0  0  0  0  0  0  0  0  0  0  0  0
    1.4290   -0.8272    0.0000 O   0  0  0  0  0  0  0  0  0  0  0  0
    2.1435    0.4103    0.0000 C   0  0  0  0  0  0  0  0  0  0  0  0
    2.8579   -0.0022    0.0000 C   0  0  0  0  0  0  0  0  0  0  0  0
    3.5724    0.4103    0.0000 C   0  0  0  0  0  0  0  0  0  0  0  0
    2.8579   -0.8272    0.0000 O   0  0  0  0  0  0  0  0  0  0  0  0
  1  2  1  0
  2  3  1  0
  3  4  2  0
  3  5  1  0
  5  6  1  0
  6  7  1  0
  6  8  2  0
M  END
>  <id>  (369) 
200168

>  <casrn>  (369) 
105-45-3

>  <smiles (First)>  (369) 
COC(=O)CC(C)=O

>  <Molecular weight>  (369) 
116.11521911621094

>  <name>  (369) 
Methyl acetoacetate

>  <Outcome>  (369) 
0

>  <Molecule (RDKit Mol) (InChI Code)>  (369) 
InChI=1S/C5H8O3/c1-4(6)3-5(7)8-2/h3H2,1-2H3

>  <reference>  (369) 
ToxValDB

>  <molecule_form>  (369) 
not specified

>  <ID>  (369) 


>  <SMILES>  (369) 
COC(=O)CC(C)=O

>  <ROMol>  (369) 
<rdkit.Chem.rdchem.Mol object at 0x0000027F78E269E0>

$$$$

     RDKit          2D

 20 19  0  0  0  0  0  0  0  0999 V2000
   -0.4125   -0.1105    0.0000 O   0  0  0  0  0  0  0  0  0  0  0  0
    0.0000   -0.8250    0.0000 C   0  0  0  0  0  0  0  0  0  0  0  0
   -0.4125   -1.5395    0.0000 O   0  0  0  0  0  0  0  0  0  0  0  0
    0.8250   -0.8250    0.0000 C   0  0  0  0  0  0  0  0  0  0  0  0
    0.8250   -1.6500    0.0000 F   0  0  0  0  0  0  0  0  0  0  0  0
    1.6500   -0.8250    0.0000 O   0  0  0  0  0  0  0  0  0  0  0  0
    2.0625   -1.5395    0.0000 C   0  0  0  0  0  0  0  0  0  0  0  0
    1.3480   -1.9520    0.0000 F   0  0  0  0  0  0  0  0  0  0  0  0
    2.7770   -1.1270    0.0000 F   0  0  0  0  0  0  0  0  0  0  0  0
    2.4750   -2.2539    0.0000 C   0  0  0  0  0  0  0  0  0  0  0  0
    1.7605   -2.6664    0.0000 F   0  0  0  0  0  0  0  0  0  0  0  0
    3.1895   -1.8414    0.0000 F   0  0  0  0  0  0  0  0  0  0  0  0
    2.8875   -2.9684    0.0000 C   0  0  0  0  0  0  0  0  0  0  0  0
    3.3000   -3.6829    0.0000 F   0  0  0  0  0  0  0  0  0  0  0  0
    2.1730   -3.3809    0.0000 F   0  0  0  0  0  0  0  0  0  0  0  0
    3.6020   -2.5559    0.0000 F   0  0  0  0  0  0  0  0  0  0  0  0
    0.8250    0.0000    0.0000 C   0  0  0  0  0  0  0  0  0  0  0  0
    0.8250    0.8250    0.0000 F   0  0  0  0  0  0  0  0  0  0  0  0
    1.6500    0.0000    0.0000 F   0  0  0  0  0  0  0  0  0  0  0  0
    0.0000    0.0000    0.0000 F   0  0  0  0  0  0  0  0  0  0  0  0
  1  2  2  0
  2  3  1  0
  2  4  1  0
  4  5  1  0
  4  6  1  0
  6  7  1  0
  7  8  1  0
  7  9  1  0
  7 10  1  0
 10 11  1  0
 10 12  1  0
 10 13  1  0
 13 14  1  0
 13 15  1  0
 13 16  1  0
  4 17  1  0
 17 18  1  0
 17 19  1  0
 17 20  1  0
M  END
>  <id>  (370) 
644

>  <casrn>  (370) 
62037-80-3

>  <smiles (First)>  (370) 


>  <Molecular weight>  (370) 
329.0448303222656

>  <name>  (370) 
-

>  <Outcome>  (370) 
0

>  <Molecule (RDKit Mol) (InChI Code)>  (370) 
InChI=1S/C6HF11O3/c7-2(1(18)19,4(10,11)12)20-6(16,17)3(8,9)5(13,14)15/h(H,18,19)

>  <reference>  (370) 
ECHA

>  <molecule_form>  (370) 
A

>  <ID>  (370) 


>  <SMILES>  (370) 
O=C(O)C(F)(OC(F)(F)C(F)(F)C(F)(F)F)C(F)(F)F

>  <ROMol>  (370) 
<rdkit.Chem.rdchem.Mol object at 0x0000027F58437740>

$$$$

     RDKit          2D

 12 12  0  0  0  0  0  0  0  0999 V2000
    0.0937    3.5476    0.0000 C   0  0  0  0  0  0  0  0  0  0  0  0
    0.8082    3.1351    0.0000 C   0  0  0  0  0  0  0  0  0  0  0  0
    0.8082    2.3101    0.0000 C   0  0  0  0  0  0  0  0  0  0  0  0
   -0.0168    2.3101    0.0000 C   0  0  0  0  0  0  0  0  0  0  0  0
    1.6332    2.3101    0.0000 C   0  0  0  0  0  0  0  0  0  0  0  0
    0.8082    1.4851    0.0000 C   0  0  0  0  0  0  0  0  0  0  0  0
    1.5227    1.0726    0.0000 C   0  0  0  0  0  0  0  0  0  0  0  0
    1.5227    0.2476    0.0000 C   0  0  0  0  0  0  0  0  0  0  0  0
    0.8082   -0.1649    0.0000 C   0  0  0  0  0  0  0  0  0  0  0  0
    0.8082   -0.9899    0.0000 O   0  0  0  0  0  0  0  0  0  0  0  0
    0.0937    0.2476    0.0000 C   0  0  0  0  0  0  0  0  0  0  0  0
    0.0937    1.0726    0.0000 C   0  0  0  0  0  0  0  0  0  0  0  0
  1  2  1  0
  2  3  1  0
  3  4  1  0
  3  5  1  0
  3  6  1  0
  6  7  2  0
  7  8  1  0
  8  9  2  0
  9 10  1  0
  9 11  1  0
 11 12  2  0
  6 12  1  0
M  END
>  <id>  (371) 
1816

>  <casrn>  (371) 
80-46-6

>  <smiles (First)>  (371) 


>  <Molecular weight>  (371) 
164.244140625

>  <name>  (371) 
4-(2-methylbutan-2-yl)phenol

>  <Outcome>  (371) 
0

>  <Molecule (RDKit Mol) (InChI Code)>  (371) 
InChI=1S/C11H16O/c1-4-11(2,3)9-5-7-10(12)8-6-9/h5-8,12H,4H2,1-3H3

>  <reference>  (371) 
ECHA

>  <molecule_form>  (371) 
A

>  <ID>  (371) 


>  <SMILES>  (371) 
CCC(C)(C)c1ccc(O)cc1

>  <ROMol>  (371) 
<rdkit.Chem.rdchem.Mol object at 0x0000027F583F43C0>

$$$$

     RDKit          2D

 12 12  0  0  0  0  0  0  0  0999 V2000
    0.7145    2.0625    0.0000 N   0  0  0  0  0  0  0  0  0  0  0  0
    0.7145    1.2375    0.0000 C   0  0  0  0  0  0  0  0  0  0  0  0
    1.4289    0.8250    0.0000 C   0  0  0  0  0  0  0  0  0  0  0  0
    1.4289   -0.0000    0.0000 C   0  0  0  0  0  0  0  0  0  0  0  0
    2.1434   -0.4125    0.0000 Cl  0  0  0  0  0  0  0  0  0  0  0  0
    0.7145   -0.4125    0.0000 N   0  0  0  0  0  0  0  0  0  0  0  0
    0.0000   -0.0000    0.0000 C   0  0  0  0  0  0  0  0  0  0  0  0
   -0.7145   -0.4125    0.0000 C   0  0  0  0  0  0  0  0  0  0  0  0
   -0.7145   -1.2375    0.0000 O   0  0  0  0  0  0  0  0  0  0  0  0
   -1.4289   -0.0000    0.0000 O   0  0  0  0  0  0  0  0  0  0  0  0
    0.0000    0.8250    0.0000 C   0  0  0  0  0  0  0  0  0  0  0  0
   -0.7145    1.2375    0.0000 Cl  0  0  0  0  0  0  0  0  0  0  0  0
  1  2  1  0
  2  3  2  0
  3  4  1  0
  4  5  1  0
  4  6  2  0
  6  7  1  0
  7  8  1  0
  8  9  2  0
  8 10  1  0
  7 11  2  0
  2 11  1  0
 11 12  1  0
M  END
>  <id>  (372) 
603

>  <casrn>  (372) 
150114-71-9

>  <smiles (First)>  (372) 


>  <Molecular weight>  (372) 
207.01416015625

>  <name>  (372) 
-

>  <Outcome>  (372) 
0

>  <Molecule (RDKit Mol) (InChI Code)>  (372) 
InChI=1S/C6H4Cl2N2O2/c7-3-1-2(9)4(8)5(10-3)6(11)12/h1H,(H2,9,10)(H,11,12)

>  <reference>  (372) 
ECHA

>  <molecule_form>  (372) 
A

>  <ID>  (372) 


>  <SMILES>  (372) 
Nc1cc(Cl)nc(C(=O)O)c1Cl

>  <ROMol>  (372) 
<rdkit.Chem.rdchem.Mol object at 0x0000027F58408270>

$$$$

     RDKit          2D

 16 16  0  0  0  0  0  0  0  0999 V2000
    1.5125    2.1708    0.0000 C   0  0  0  0  0  0  0  0  0  0  0  0
    1.0103    1.5163    0.0000 Si  0  0  0  0  0  4  0  0  0  0  0  0
    0.5080    2.1708    0.0000 C   0  0  0  0  0  0  0  0  0  0  0  0
    1.7725    1.2005    0.0000 O   0  0  0  0  0  0  0  0  0  0  0  0
    2.0882    0.4383    0.0000 Si  0  0  0  0  0  4  0  0  0  0  0  0
    2.7427    0.9406    0.0000 C   0  0  0  0  0  0  0  0  0  0  0  0
    2.7427   -0.0639    0.0000 C   0  0  0  0  0  0  0  0  0  0  0  0
    1.7725   -0.3239    0.0000 O   0  0  0  0  0  0  0  0  0  0  0  0
    1.0103   -0.6396    0.0000 Si  0  0  0  0  0  4  0  0  0  0  0  0
    1.5125   -1.2941    0.0000 C   0  0  0  0  0  0  0  0  0  0  0  0
    0.5080   -1.2941    0.0000 C   0  0  0  0  0  0  0  0  0  0  0  0
    0.2481   -0.3239    0.0000 O   0  0  0  0  0  0  0  0  0  0  0  0
   -0.0677    0.4383    0.0000 Si  0  0  0  0  0  4  0  0  0  0  0  0
   -0.7222   -0.0639    0.0000 C   0  0  0  0  0  0  0  0  0  0  0  0
   -0.7222    0.9406    0.0000 C   0  0  0  0  0  0  0  0  0  0  0  0
    0.2481    1.2005    0.0000 O   0  0  0  0  0  0  0  0  0  0  0  0
  1  2  1  0
  2  3  1  0
  2  4  1  0
  4  5  1  0
  5  6  1  0
  5  7  1  0
  5  8  1  0
  8  9  1  0
  9 10  1  0
  9 11  1  0
  9 12  1  0
 12 13  1  0
 13 14  1  0
 13 15  1  0
 13 16  1  0
  2 16  1  0
M  END
>  <id>  (373) 
3627

>  <casrn>  (373) 
556-67-2

>  <smiles (First)>  (373) 


>  <Molecular weight>  (373) 
296.6157531738281

>  <name>  (373) 
octamethyl-1,3,5,7,2,4,6,8-tetraoxatetrasilocane

>  <Outcome>  (373) 
0

>  <Molecule (RDKit Mol) (InChI Code)>  (373) 
InChI=1S/C8H24O4Si4/c1-13(2)9-14(3,4)11-16(7,8)12-15(5,6)10-13/h1-8H3

>  <reference>  (373) 
ECHA

>  <molecule_form>  (373) 
A

>  <ID>  (373) 


>  <SMILES>  (373) 
C[Si]1(C)O[Si](C)(C)O[Si](C)(C)O[Si](C)(C)O1

>  <ROMol>  (373) 
<rdkit.Chem.rdchem.Mol object at 0x0000027F624DD970>

$$$$

     RDKit          2D

  8  8  0  0  0  0  0  0  0  0999 V2000
    0.7145    2.0625    0.0000 C   0  0  0  0  0  0  0  0  0  0  0  0
    0.7145    1.2375    0.0000 C   0  0  0  0  0  0  0  0  0  0  0  0
    1.4290    0.8250    0.0000 C   0  0  0  0  0  0  0  0  0  0  0  0
    1.4290   -0.0000    0.0000 C   0  0  0  0  0  0  0  0  0  0  0  0
    0.7145   -0.4125    0.0000 C   0  0  0  0  0  0  0  0  0  0  0  0
    0.7145   -1.2375    0.0000 C   0  0  0  0  0  0  0  0  0  0  0  0
    0.0000    0.0000    0.0000 C   0  0  0  0  0  0  0  0  0  0  0  0
    0.0000    0.8250    0.0000 C   0  0  0  0  0  0  0  0  0  0  0  0
  1  2  1  0
  2  3  2  0
  3  4  1  0
  4  5  2  0
  5  6  1  0
  5  7  1  0
  7  8  2  0
  2  8  1  0
M  END
>  <id>  (374) 
1070; 1067; 1069; 1066; 1071; 1063; 1068; 1064; 1065

>  <casrn>  (374) 
106-42-3

>  <smiles (First)>  (374) 


>  <Molecular weight>  (374) 
106.16500091552733

>  <name>  (374) 
1,4-xylene

>  <Outcome>  (374) 
0

>  <Molecule (RDKit Mol) (InChI Code)>  (374) 
InChI=1S/C8H10/c1-7-3-5-8(2)6-4-7/h3-6H,1-2H3

>  <reference>  (374) 
ECHA

>  <molecule_form>  (374) 
V

>  <ID>  (374) 


>  <SMILES>  (374) 
Cc1ccc(C)cc1

>  <ROMol>  (374) 
<rdkit.Chem.rdchem.Mol object at 0x0000027F5C149430>

$$$$

     RDKit          2D

  5  4  0  0  0  0  0  0  0  0999 V2000
    2.1837   -0.6993    0.0000 C   0  0  0  0  0  0  0  0  0  0  0  0
    1.3587   -0.6993    0.0000 C   0  0  0  0  0  0  0  0  0  0  0  0
    0.9462   -1.4137    0.0000 C   0  0  0  0  0  0  0  0  0  0  0  0
    0.9462    0.0152    0.0000 C   0  0  0  0  0  0  0  0  0  0  0  0
    0.1212    0.0152    0.0000 O   0  0  0  0  0  0  0  0  0  0  0  0
  1  2  1  0
  2  3  1  0
  2  4  1  0
  4  5  1  0
M  END
>  <id>  (375) 
1656

>  <casrn>  (375) 
78-83-1

>  <smiles (First)>  (375) 


>  <Molecular weight>  (375) 
74.1216049194336

>  <name>  (375) 
2-methylpropan-1-ol

>  <Outcome>  (375) 
0

>  <Molecule (RDKit Mol) (InChI Code)>  (375) 
InChI=1S/C4H10O/c1-4(2)3-5/h4-5H,3H2,1-2H3

>  <reference>  (375) 
ECHA

>  <molecule_form>  (375) 
V

>  <ID>  (375) 


>  <SMILES>  (375) 
CC(C)CO

>  <ROMol>  (375) 
<rdkit.Chem.rdchem.Mol object at 0x0000027F584ACC10>

$$$$

     RDKit          2D

  8  9  0  0  0  0  0  0  0  0999 V2000
   -0.9803   -0.4228    0.0000 C   0  0  0  0  0  0  0  0  0  0  0  0
   -0.9803    0.4022    0.0000 C   0  0  0  0  0  0  0  0  0  0  0  0
   -0.2658    0.8147    0.0000 N   0  0  0  0  0  0  0  0  0  0  0  0
    0.4486    0.4022    0.0000 C   0  0  0  0  0  0  0  0  0  0  0  0
    0.4486   -0.4228    0.0000 C   0  0  0  0  0  0  0  0  0  0  0  0
   -0.2658   -0.8353    0.0000 N   0  0  0  0  0  0  0  0  0  0  0  0
   -0.4033   -0.2853    0.0000 C   0  0  0  0  0  0  0  0  0  0  0  0
   -0.4033    0.2647    0.0000 C   0  0  0  0  0  0  0  0  0  0  0  0
  2  1  1  0
  3  2  1  0
  3  4  1  0
  4  5  1  0
  5  6  1  0
  6  7  1  0
  7  8  1  0
  1  6  1  0
  8  3  1  0
M  END
>  <id>  (376) 
254870

>  <casrn>  (376) 
280-57-9

>  <smiles (First)>  (376) 
C1CN2CCN1CC2

>  <Molecular weight>  (376) 
112.17288208007812

>  <name>  (376) 
1,4-Diazabicyclo[2.2.2]octane

>  <Outcome>  (376) 
0

>  <Molecule (RDKit Mol) (InChI Code)>  (376) 
InChI=1S/C6H12N2/c1-2-8-5-3-7(1)4-6-8/h1-6H2

>  <reference>  (376) 
ToxValDB

>  <molecule_form>  (376) 
not specified

>  <ID>  (376) 


>  <SMILES>  (376) 
C1CN2CCN1CC2

>  <ROMol>  (376) 
<rdkit.Chem.rdchem.Mol object at 0x0000027F585CB7B0>

$$$$

     RDKit          2D

  6  5  0  0  0  0  0  0  0  0999 V2000
   -0.1914    0.7123    0.0000 C   0  0  0  0  0  0  0  0  0  0  0  0
    0.5230    1.1248    0.0000 C   0  0  0  0  0  0  0  0  0  0  0  0
    1.2375    0.7123    0.0000 C   0  0  0  0  0  0  0  0  0  0  0  0
    1.9520    1.1248    0.0000 C   0  0  0  0  0  0  0  0  0  0  0  0
    2.6664    0.7123    0.0000 C   0  0  0  0  0  0  0  0  0  0  0  0
    3.3809    1.1248    0.0000 O   0  0  0  0  0  0  0  0  0  0  0  0
  1  2  1  0
  2  3  1  0
  3  4  1  0
  4  5  1  0
  5  6  2  0
M  END
>  <id>  (377) 
4613

>  <casrn>  (377) 
110-62-3

>  <smiles (First)>  (377) 


>  <Molecular weight>  (377) 
86.1323013305664

>  <name>  (377) 
valeraldehyde

>  <Outcome>  (377) 
1

>  <Molecule (RDKit Mol) (InChI Code)>  (377) 
InChI=1S/C5H10O/c1-2-3-4-5-6/h5H,2-4H2,1H3

>  <reference>  (377) 
ECHA

>  <molecule_form>  (377) 
V

>  <ID>  (377) 


>  <SMILES>  (377) 
CCCCC=O

>  <ROMol>  (377) 
<rdkit.Chem.rdchem.Mol object at 0x0000027F62463EB0>

$$$$

     RDKit          2D

  5  4  0  0  0  0  0  0  0  0999 V2000
    2.4738   -1.4311    0.0000 C   0  0  0  0  0  0  0  0  0  0  0  0
    2.0613   -0.7167    0.0000 C   0  0  0  0  0  0  0  0  0  0  0  0
    1.2363   -0.7167    0.0000 C   0  0  0  0  0  0  0  0  0  0  0  0
    0.8238   -0.0022    0.0000 C   0  0  0  0  0  0  0  0  0  0  0  0
   -0.0012   -0.0022    0.0000 Cl  0  0  0  0  0  0  0  0  0  0  0  0
  1  2  1  0
  2  3  1  0
  3  4  1  0
  4  5  1  0
M  END
>  <id>  (378) 
1151

>  <casrn>  (378) 
109-69-3

>  <smiles (First)>  (378) 


>  <Molecular weight>  (378) 
92.5672607421875

>  <name>  (378) 
1-chlorobutane

>  <Outcome>  (378) 
0

>  <Molecule (RDKit Mol) (InChI Code)>  (378) 
InChI=1S/C4H9Cl/c1-2-3-4-5/h2-4H2,1H3

>  <reference>  (378) 
ECHA

>  <molecule_form>  (378) 
A

>  <ID>  (378) 


>  <SMILES>  (378) 
CCCCCl

>  <ROMol>  (378) 
<rdkit.Chem.rdchem.Mol object at 0x0000027F5C1442E0>

$$$$

     RDKit          2D

  8  8  0  0  0  0  0  0  0  0999 V2000
    1.3943    1.2766    0.0000 C   0  0  0  0  0  0  0  0  0  0  0  0
    2.1088    0.8641    0.0000 C   0  0  0  0  0  0  0  0  0  0  0  0
    2.8233    1.2766    0.0000 C   0  0  0  0  0  0  0  0  0  0  0  0
    3.5377    0.8641    0.0000 O   0  0  0  0  0  0  0  0  0  0  0  0
    4.2522    1.2766    0.0000 C   0  0  0  0  0  0  0  0  0  0  0  0
    4.9667    0.8641    0.0000 C   0  0  0  0  0  0  0  0  0  0  0  0
    5.7917    0.8641    0.0000 C   0  0  0  0  0  0  0  0  0  0  0  0
    5.3792    0.1497    0.0000 O   0  0  0  0  0  0  0  0  0  0  0  0
  1  2  2  0
  2  3  1  0
  3  4  1  0
  4  5  1  0
  5  6  1  0
  6  7  1  0
  7  8  1  0
  6  8  1  0
M  END
>  <id>  (379) 
1398

>  <casrn>  (379) 
106-92-3

>  <smiles (First)>  (379) 


>  <Molecular weight>  (379) 
114.14240264892578

>  <name>  (379) 
2-[(prop-2-en-1-yloxy)methyl]oxirane

>  <Outcome>  (379) 
1

>  <Molecule (RDKit Mol) (InChI Code)>  (379) 
InChI=1S/C6H10O2/c1-2-3-7-4-6-5-8-6/h2,6H,1,3-5H2

>  <reference>  (379) 
ECHA

>  <molecule_form>  (379) 
V

>  <ID>  (379) 


>  <SMILES>  (379) 
C=CCOCC1CO1

>  <ROMol>  (379) 
<rdkit.Chem.rdchem.Mol object at 0x0000027F584080B0>

$$$$

     RDKit          2D

 11 11  0  0  0  0  0  0  0  0999 V2000
   -0.3297   -0.8227    0.0000 Cl  0  0  0  0  0  0  0  0  0  0  0  0
    0.1553   -0.1553    0.0000 C   0  0  0  0  0  0  0  0  0  0  0  0
   -0.0997    0.6294    0.0000 C   0  0  0  0  0  0  0  0  0  0  0  0
   -0.8843    0.8843    0.0000 Cl  0  0  0  0  0  0  0  0  0  0  0  0
    0.5678    1.1143    0.0000 C   0  0  0  0  0  0  0  0  0  0  0  0
    0.0157    1.7274    0.0000 Cl  0  0  0  0  0  0  0  0  0  0  0  0
    1.1198    1.7274    0.0000 Cl  0  0  0  0  0  0  0  0  0  0  0  0
    1.2352    0.6294    0.0000 C   0  0  0  0  0  0  0  0  0  0  0  0
    2.0198    0.8843    0.0000 Cl  0  0  0  0  0  0  0  0  0  0  0  0
    0.9803   -0.1553    0.0000 C   0  0  0  0  0  0  0  0  0  0  0  0
    1.4652   -0.8227    0.0000 Cl  0  0  0  0  0  0  0  0  0  0  0  0
  1  2  1  0
  2  3  2  0
  3  4  1  0
  3  5  1  0
  5  6  1  0
  5  7  1  0
  5  8  1  0
  8  9  1  0
  8 10  2  0
  2 10  1  0
 10 11  1  0
M  END
>  <id>  (380) 
3253

>  <casrn>  (380) 
77-47-4

>  <smiles (First)>  (380) 


>  <Molecular weight>  (380) 
272.771484375

>  <name>  (380) 
hexachlorocyclopenta-1,3-diene

>  <Outcome>  (380) 
1

>  <Molecule (RDKit Mol) (InChI Code)>  (380) 
InChI=1S/C5Cl6/c6-1-2(7)4(9)5(10,11)3(1)8

>  <reference>  (380) 
ECHA

>  <molecule_form>  (380) 
V

>  <ID>  (380) 


>  <SMILES>  (380) 
ClC1=C(Cl)C(Cl)(Cl)C(Cl)=C1Cl

>  <ROMol>  (380) 
<rdkit.Chem.rdchem.Mol object at 0x0000027F5C1444A0>

$$$$

     RDKit          2D

 22 24  0  0  0  0  0  0  0  0999 V2000
    5.3037   -2.0852    0.0000 C   0  0  0  0  0  0  0  0  0  0  0  0
    4.6906   -1.5331    0.0000 C   0  0  0  0  0  0  0  0  0  0  0  0
    3.9060   -1.7881    0.0000 O   0  0  0  0  0  0  0  0  0  0  0  0
    3.2929   -1.2360    0.0000 C   0  0  0  0  0  0  0  0  0  0  0  0
    3.4644   -0.4291    0.0000 O   0  0  0  0  0  0  0  0  0  0  0  0
    2.5082   -1.4910    0.0000 C   0  0  0  0  0  0  0  0  0  0  0  0
    2.2533   -2.2756    0.0000 N   0  0  0  0  0  0  0  0  0  0  0  0
    1.4283   -2.2756    0.0000 O   0  0  0  0  0  0  0  0  0  0  0  0
    1.1734   -1.4910    0.0000 C   0  0  0  0  0  0  0  0  0  0  0  0
    0.4197   -1.8265    0.0000 C   0  0  0  0  0  0  0  0  0  0  0  0
    0.3335   -2.6470    0.0000 C   0  0  0  0  0  0  0  0  0  0  0  0
   -0.4202   -2.9826    0.0000 C   0  0  0  0  0  0  0  0  0  0  0  0
   -1.0877   -2.4977    0.0000 C   0  0  0  0  0  0  0  0  0  0  0  0
   -1.0014   -1.6772    0.0000 C   0  0  0  0  0  0  0  0  0  0  0  0
   -0.2478   -1.3416    0.0000 C   0  0  0  0  0  0  0  0  0  0  0  0
    0.7609   -0.7765    0.0000 C   0  0  0  0  0  0  0  0  0  0  0  0
   -0.0641   -0.7765    0.0000 C   0  0  0  0  0  0  0  0  0  0  0  0
   -0.4766   -0.0620    0.0000 C   0  0  0  0  0  0  0  0  0  0  0  0
   -0.0641    0.6524    0.0000 C   0  0  0  0  0  0  0  0  0  0  0  0
    0.7609    0.6524    0.0000 C   0  0  0  0  0  0  0  0  0  0  0  0
    1.1734   -0.0620    0.0000 C   0  0  0  0  0  0  0  0  0  0  0  0
    1.8408   -1.0061    0.0000 C   0  0  0  0  0  0  0  0  0  0  0  0
  1  2  1  0
  2  3  1  0
  3  4  1  0
  4  5  2  0
  4  6  1  0
  6  7  2  0
  7  8  1  0
  8  9  1  0
  9 10  1  0
 10 11  2  0
 11 12  1  0
 12 13  2  0
 13 14  1  0
 14 15  2  0
 10 15  1  0
  9 16  1  0
 16 17  2  0
 17 18  1  0
 18 19  2  0
 19 20  1  0
 20 21  2  0
 16 21  1  0
  9 22  1  0
  6 22  1  0
M  END
>  <id>  (381) 
3152

>  <casrn>  (381) 
163520-33-0

>  <smiles (First)>  (381) 


>  <Molecular weight>  (381) 
295.3324890136719

>  <name>  (381) 
ethyl 5,5-diphenyl-4,5-dihydro-1,2-oxazole-3-carboxylate

>  <Outcome>  (381) 
0

>  <Molecule (RDKit Mol) (InChI Code)>  (381) 
InChI=1S/C18H17NO3/c1-2-21-17(20)16-13-18(22-19-16,14-9-5-3-6-10-14)15-11-7-4-8-12-15/h3-12H,2,13H2,1H3

>  <reference>  (381) 
ECHA

>  <molecule_form>  (381) 
A

>  <ID>  (381) 


>  <SMILES>  (381) 
CCOC(=O)C1=NOC(c2ccccc2)(c2ccccc2)C1

>  <ROMol>  (381) 
<rdkit.Chem.rdchem.Mol object at 0x0000027F58408660>

$$$$

     RDKit          2D

 26 28  0  0  0  0  0  0  0  0999 V2000
    2.8366    2.4527    0.0000 O   0  0  0  0  0  0  0  0  0  0  0  0
    3.5511    2.8652    0.0000 C   0  0  0  0  0  0  0  0  0  0  0  0
    4.2655    2.4527    0.0000 N   0  0  0  0  0  0  0  0  0  0  0  0
    4.2655    1.6277    0.0000 C   0  0  0  0  0  0  0  0  0  0  0  0
    4.9800    1.2152    0.0000 C   0  0  0  0  0  0  0  0  0  0  0  0
    4.9800    0.3902    0.0000 C   0  0  0  0  0  0  0  0  0  0  0  0
    4.2655   -0.0223    0.0000 C   0  0  0  0  0  0  0  0  0  0  0  0
    3.5511    0.3902    0.0000 C   0  0  0  0  0  0  0  0  0  0  0  0
    3.5511    1.2152    0.0000 C   0  0  0  0  0  0  0  0  0  0  0  0
    3.5511    3.6902    0.0000 N   0  0  0  0  0  0  0  0  0  0  0  0
    2.8366    4.1027    0.0000 C   0  0  0  0  0  0  0  0  0  0  0  0
    2.1221    3.6902    0.0000 C   0  0  0  0  0  0  0  0  0  0  0  0
    1.4077    4.1027    0.0000 C   0  0  0  0  0  0  0  0  0  0  0  0
    1.4077    4.9277    0.0000 C   0  0  0  0  0  0  0  0  0  0  0  0
    2.1221    5.3402    0.0000 C   0  0  0  0  0  0  0  0  0  0  0  0
    2.8366    4.9277    0.0000 C   0  0  0  0  0  0  0  0  0  0  0  0
    3.5511    5.3402    0.0000 N   0  0  0  0  0  0  0  0  0  0  0  0
    4.2655    4.9277    0.0000 S   0  0  0  0  0  0  0  0  0  0  0  0
    3.8530    4.2132    0.0000 O   0  0  0  0  0  0  0  0  0  0  0  0
    4.6780    5.6422    0.0000 O   0  0  0  0  0  0  0  0  0  0  0  0
    4.9800    4.5152    0.0000 C   0  0  0  0  0  0  0  0  0  0  0  0
    5.6945    4.9277    0.0000 C   0  0  0  0  0  0  0  0  0  0  0  0
    6.4089    4.5152    0.0000 C   0  0  0  0  0  0  0  0  0  0  0  0
    6.4089    3.6902    0.0000 C   0  0  0  0  0  0  0  0  0  0  0  0
    5.6945    3.2777    0.0000 C   0  0  0  0  0  0  0  0  0  0  0  0
    4.9800    3.6902    0.0000 C   0  0  0  0  0  0  0  0  0  0  0  0
  1  2  2  0
  2  3  1  0
  3  4  1  0
  4  5  2  0
  5  6  1  0
  6  7  2  0
  7  8  1  0
  8  9  2  0
  4  9  1  0
  2 10  1  0
 10 11  1  0
 11 12  2  0
 12 13  1  0
 13 14  2  0
 14 15  1  0
 15 16  2  0
 11 16  1  0
 16 17  1  0
 17 18  1  0
 18 19  2  0
 18 20  2  0
 18 21  1  0
 21 22  2  0
 22 23  1  0
 23 24  2  0
 24 25  1  0
 25 26  2  0
 21 26  1  0
M  END
>  <id>  (382) 
1086

>  <casrn>  (382) 
215917-77-4

>  <smiles (First)>  (382) 


>  <Molecular weight>  (382) 
367.42156982421875

>  <name>  (382) 
1-(2-benzenesulfonamidophenyl)-3-phenylurea

>  <Outcome>  (382) 
0

>  <Molecule (RDKit Mol) (InChI Code)>  (382) 
InChI=1S/C19H17N3O3S/c23-19(20-15-9-3-1-4-10-15)21-17-13-7-8-14-18(17)22-26(24,25)16-11-5-2-6-12-16/h1-14,22H,(H2,20,21,23)

>  <reference>  (382) 
ECHA

>  <molecule_form>  (382) 
A

>  <ID>  (382) 


>  <SMILES>  (382) 
O=C(Nc1ccccc1)Nc1ccccc1NS(=O)(=O)c1ccccc1

>  <ROMol>  (382) 
<rdkit.Chem.rdchem.Mol object at 0x0000027F5842F510>

$$$$

     RDKit          2D

 10  9  0  0  0  0  0  0  0  0999 V2000
    1.5395   -1.2375    0.0000 F   0  0  0  0  0  0  0  0  0  0  0  0
    0.8250   -0.8250    0.0000 C   0  0  0  0  0  0  0  0  0  0  0  0
    0.1105   -1.2375    0.0000 C   0  0  0  0  0  0  0  0  0  0  0  0
   -0.6039   -1.6500    0.0000 F   0  0  0  0  0  0  0  0  0  0  0  0
    0.5230   -1.9520    0.0000 F   0  0  0  0  0  0  0  0  0  0  0  0
   -0.3020   -0.5230    0.0000 F   0  0  0  0  0  0  0  0  0  0  0  0
    0.8250   -0.0000    0.0000 C   0  0  0  0  0  0  0  0  0  0  0  0
    0.8250    0.8250    0.0000 F   0  0  0  0  0  0  0  0  0  0  0  0
    1.6500   -0.0000    0.0000 F   0  0  0  0  0  0  0  0  0  0  0  0
   -0.0000   -0.0000    0.0000 F   0  0  0  0  0  0  0  0  0  0  0  0
  1  2  1  0
  2  3  1  0
  3  4  1  0
  3  5  1  0
  3  6  1  0
  2  7  1  0
  7  8  1  0
  7  9  1  0
  7 10  1  0
M  END
>  <id>  (383) 
877; 878

>  <casrn>  (383) 
431-89-0

>  <smiles (First)>  (383) 


>  <Molecular weight>  (383) 
170.02886962890625

>  <name>  (383) 
1,1,1,2,3,3,3-heptafluoropropane

>  <Outcome>  (383) 
0

>  <Molecule (RDKit Mol) (InChI Code)>  (383) 
InChI=1S/C3HF7/c4-1(2(5,6)7)3(8,9)10/h1H

>  <reference>  (383) 
ECHA

>  <molecule_form>  (383) 
G

>  <ID>  (383) 


>  <SMILES>  (383) 
FC(C(F)(F)F)C(F)(F)F

>  <ROMol>  (383) 
<rdkit.Chem.rdchem.Mol object at 0x0000027F78E2C7B0>

$$$$

     RDKit          2D

  9  9  0  0  0  0  0  0  0  0999 V2000
    0.0097    2.4516    0.0000 C   0  0  0  0  0  0  0  0  0  0  0  0
    0.7241    2.0391    0.0000 O   0  0  0  0  0  0  0  0  0  0  0  0
    0.7241    1.2141    0.0000 C   0  0  0  0  0  0  0  0  0  0  0  0
    1.4386    0.8016    0.0000 C   0  0  0  0  0  0  0  0  0  0  0  0
    1.4386   -0.0234    0.0000 C   0  0  0  0  0  0  0  0  0  0  0  0
    0.7241   -0.4359    0.0000 C   0  0  0  0  0  0  0  0  0  0  0  0
    0.0097   -0.0234    0.0000 C   0  0  0  0  0  0  0  0  0  0  0  0
    0.0097    0.8016    0.0000 C   0  0  0  0  0  0  0  0  0  0  0  0
   -0.7048    1.2141    0.0000 O   0  0  0  0  0  0  0  0  0  0  0  0
  1  2  1  0
  2  3  1  0
  3  4  2  0
  4  5  1  0
  5  6  2  0
  6  7  1  0
  7  8  2  0
  3  8  1  0
  8  9  1  0
M  END
>  <id>  (384) 
1503

>  <casrn>  (384) 
90-05-1

>  <smiles (First)>  (384) 


>  <Molecular weight>  (384) 
124.13722229003906

>  <name>  (384) 
2-methoxyphenol

>  <Outcome>  (384) 
1

>  <Molecule (RDKit Mol) (InChI Code)>  (384) 
InChI=1S/C7H8O2/c1-9-7-5-3-2-4-6(7)8/h2-5,8H,1H3

>  <reference>  (384) 
ECHA

>  <molecule_form>  (384) 
V

>  <ID>  (384) 


>  <SMILES>  (384) 
COc1ccccc1O

>  <ROMol>  (384) 
<rdkit.Chem.rdchem.Mol object at 0x0000027F58408890>

$$$$

     RDKit          2D

 10 10  0  0  0  0  0  0  0  0999 V2000
   -0.7145    2.8875    0.0000 O   0  0  0  0  0  0  0  0  0  0  0  0
   -0.0000    2.4750    0.0000 C   0  0  0  0  0  0  0  0  0  0  0  0
    0.7145    2.0625    0.0000 N   0  0  0  0  0  0  0  0  0  0  0  0
    0.7145    1.2375    0.0000 C   0  0  0  0  0  0  0  0  0  0  0  0
    1.4289    0.8250    0.0000 C   0  0  0  0  0  0  0  0  0  0  0  0
    1.4289   -0.0000    0.0000 C   0  0  0  0  0  0  0  0  0  0  0  0
    0.7145   -0.4125    0.0000 C   0  0  0  0  0  0  0  0  0  0  0  0
   -0.0000   -0.0000    0.0000 C   0  0  0  0  0  0  0  0  0  0  0  0
   -0.0000    0.8250    0.0000 C   0  0  0  0  0  0  0  0  0  0  0  0
   -0.7145    1.2375    0.0000 Cl  0  0  0  0  0  0  0  0  0  0  0  0
  1  2  2  0
  2  3  2  0
  3  4  1  0
  4  5  2  0
  5  6  1  0
  6  7  2  0
  7  8  1  0
  8  9  2  0
  4  9  1  0
  9 10  1  0
M  END
>  <id>  (385) 
1136

>  <casrn>  (385) 
3320-83-0

>  <smiles (First)>  (385) 


>  <Molecular weight>  (385) 
153.56576538085938

>  <name>  (385) 
1-chloro-2-isocyanatobenzene

>  <Outcome>  (385) 
1

>  <Molecule (RDKit Mol) (InChI Code)>  (385) 
InChI=1S/C7H4ClNO/c8-6-3-1-2-4-7(6)9-5-10/h1-4H

>  <reference>  (385) 
ECHA

>  <molecule_form>  (385) 
V

>  <ID>  (385) 


>  <SMILES>  (385) 
O=C=Nc1ccccc1Cl

>  <ROMol>  (385) 
<rdkit.Chem.rdchem.Mol object at 0x0000027F624B1DD0>

$$$$

     RDKit          2D

  9  8  0  0  0  0  0  0  0  0999 V2000
    1.6728    1.8802    0.0000 C   0  0  0  0  0  0  0  0  0  0  0  0
    2.3872    1.4677    0.0000 C   0  0  0  0  0  0  0  0  0  0  0  0
    3.1017    1.8802    0.0000 O   0  0  0  0  0  0  0  0  0  0  0  0
    3.8162    1.4677    0.0000 C   0  0  0  0  0  0  0  0  0  0  0  0
    3.8162    0.6427    0.0000 O   0  0  0  0  0  0  0  0  0  0  0  0
    4.5306    1.8802    0.0000 C   0  0  0  0  0  0  0  0  0  0  0  0
    4.5306    2.7052    0.0000 C   0  0  0  0  0  0  0  0  0  0  0  0
    5.2451    1.4677    0.0000 C   0  0  0  0  0  0  0  0  0  0  0  0
    5.9596    1.8802    0.0000 C   0  0  0  0  0  0  0  0  0  0  0  0
  1  2  1  0
  2  3  1  0
  3  4  1  0
  4  5  2  0
  4  6  1  0
  6  7  1  0
  6  8  1  0
  8  9  1  0
M  END
>  <id>  (386) 
3147

>  <casrn>  (386) 
7452-79-1

>  <smiles (First)>  (386) 


>  <Molecular weight>  (386) 
130.1848602294922

>  <name>  (386) 
ethyl 2-methylbutanoate

>  <Outcome>  (386) 
0

>  <Molecule (RDKit Mol) (InChI Code)>  (386) 
InChI=1S/C7H14O2/c1-4-6(3)7(8)9-5-2/h6H,4-5H2,1-3H3

>  <reference>  (386) 
ECHA

>  <molecule_form>  (386) 
A

>  <ID>  (386) 


>  <SMILES>  (386) 
CCOC(=O)C(C)CC

>  <ROMol>  (386) 
<rdkit.Chem.rdchem.Mol object at 0x0000027F5843AEB0>

$$$$

     RDKit          2D

 12 13  0  0  0  0  0  0  0  0999 V2000
    1.4289   -2.4750    0.0000 N   0  0  0  0  0  0  0  0  0  0  0  0
    1.4289   -1.6500    0.0000 C   0  0  0  0  0  0  0  0  0  0  0  0
    0.7145   -1.2375    0.0000 C   0  0  0  0  0  0  0  0  0  0  0  0
    0.7145   -0.4125    0.0000 C   0  0  0  0  0  0  0  0  0  0  0  0
    1.4289   -0.0000    0.0000 C   0  0  0  0  0  0  0  0  0  0  0  0
    2.1434   -0.4125    0.0000 C   0  0  0  0  0  0  0  0  0  0  0  0
    2.8579   -0.0000    0.0000 C   0  0  0  0  0  0  0  0  0  0  0  0
    2.8579    0.8250    0.0000 N   0  0  0  0  0  0  0  0  0  0  0  0
    3.5724   -0.4125    0.0000 C   0  0  0  0  0  0  0  0  0  0  0  0
    3.5724   -1.2375    0.0000 C   0  0  0  0  0  0  0  0  0  0  0  0
    2.8579   -1.6500    0.0000 C   0  0  0  0  0  0  0  0  0  0  0  0
    2.1434   -1.2375    0.0000 C   0  0  0  0  0  0  0  0  0  0  0  0
  1  2  1  0
  2  3  2  0
  3  4  1  0
  4  5  2  0
  5  6  1  0
  6  7  2  0
  7  8  1  0
  7  9  1  0
  9 10  2  0
 10 11  1  0
 11 12  2  0
  2 12  1  0
  6 12  1  0
M  END
>  <id>  (387) 
3501

>  <casrn>  (387) 
2243-62-1

>  <smiles (First)>  (387) 


>  <Molecular weight>  (387) 
158.19979858398438

>  <name>  (387) 
naphthalene-1,5-diamine

>  <Outcome>  (387) 
0

>  <Molecule (RDKit Mol) (InChI Code)>  (387) 
InChI=1S/C10H10N2/c11-9-5-1-3-7-8(9)4-2-6-10(7)12/h1-6H,11-12H2

>  <reference>  (387) 
ECHA

>  <molecule_form>  (387) 
A

>  <ID>  (387) 


>  <SMILES>  (387) 
Nc1cccc2c(N)cccc12

>  <ROMol>  (387) 
<rdkit.Chem.rdchem.Mol object at 0x0000027F58419B30>

$$$$

     RDKit          2D

  4  3  0  0  0  0  0  0  0  0999 V2000
    0.9073   -1.9366    0.0000 O   0  0  0  0  0  0  0  0  0  0  0  0
    0.4948   -1.2221    0.0000 C   0  0  0  0  0  0  0  0  0  0  0  0
   -0.3302   -1.2221    0.0000 C   0  0  0  0  0  0  0  0  0  0  0  0
   -1.1552   -1.2221    0.0000 C   0  0  0  0  0  0  0  0  0  0  0  0
  1  2  1  0
  2  3  1  0
  3  4  3  0
M  END
>  <id>  (388) 
901461

>  <casrn>  (388) 
107-19-7

>  <smiles (First)>  (388) 
OCC#C

>  <Molecular weight>  (388) 
56.063262939453125

>  <name>  (388) 
Propargyl alcohol

>  <Outcome>  (388) 
1

>  <Molecule (RDKit Mol) (InChI Code)>  (388) 
InChI=1S/C3H4O/c1-2-3-4/h1,4H,3H2

>  <reference>  (388) 
ToxValDB

>  <molecule_form>  (388) 
not specified

>  <ID>  (388) 


>  <SMILES>  (388) 
C#CCO

>  <ROMol>  (388) 
<rdkit.Chem.rdchem.Mol object at 0x0000027F584440B0>

$$$$

     RDKit          2D

  7  6  0  0  0  0  0  0  0  0999 V2000
   -0.1682    0.7241    0.0000 C   0  0  0  0  0  0  0  0  0  0  0  0
    0.5463    1.1366    0.0000 N   0  0  0  0  0  0  0  0  0  0  0  0
    0.5463    1.9616    0.0000 C   0  0  0  0  0  0  0  0  0  0  0  0
    1.2607    0.7241    0.0000 C   0  0  0  0  0  0  0  0  0  0  0  0
    1.9752    1.1366    0.0000 C   0  0  0  0  0  0  0  0  0  0  0  0
    2.6897    0.7241    0.0000 C   0  0  0  0  0  0  0  0  0  0  0  0
    3.4041    1.1366    0.0000 N   0  0  0  0  0  0  0  0  0  0  0  0
  1  2  1  0
  2  3  1  0
  2  4  1  0
  4  5  1  0
  5  6  1  0
  6  7  1  0
M  END
>  <id>  (389) 
188

>  <casrn>  (389) 
109-55-7

>  <smiles (First)>  (389) 


>  <Molecular weight>  (389) 
102.17806243896484

>  <name>  (389) 
(3-aminopropyl)dimethylamine

>  <Outcome>  (389) 
0

>  <Molecule (RDKit Mol) (InChI Code)>  (389) 
InChI=1S/C5H14N2/c1-7(2)5-3-4-6/h3-6H2,1-2H3

>  <reference>  (389) 
ECHA

>  <molecule_form>  (389) 
V

>  <ID>  (389) 


>  <SMILES>  (389) 
CN(C)CCCN

>  <ROMol>  (389) 
<rdkit.Chem.rdchem.Mol object at 0x0000027F624DDF20>

$$$$

     RDKit          2D

  9  8  0  0  0  0  0  0  0  0999 V2000
    3.9430   -2.1201    0.0000 C   0  0  0  0  0  0  0  0  0  0  0  0
    3.5305   -1.4056    0.0000 Si  0  0  0  0  0  4  0  0  0  0  0  0
    4.2449   -0.9931    0.0000 C   0  0  0  0  0  0  0  0  0  0  0  0
    2.8160   -1.8181    0.0000 F   0  0  0  0  0  0  0  0  0  0  0  0
    3.1180   -0.6911    0.0000 C   0  0  0  0  0  0  0  0  0  0  0  0
    2.2930   -0.6911    0.0000 C   0  0  0  0  0  0  0  0  0  0  0  0
    1.8805    0.0234    0.0000 C   0  0  0  0  0  0  0  0  0  0  0  0
    1.0555    0.0234    0.0000 C   0  0  0  0  0  0  0  0  0  0  0  0
    0.2305    0.0234    0.0000 N   0  0  0  0  0  0  0  0  0  0  0  0
  1  2  1  0
  2  3  1  0
  2  4  1  0
  2  5  1  0
  5  6  1  0
  6  7  1  0
  7  8  1  0
  8  9  3  0
M  END
>  <id>  (390) 
4183; 4182

>  <casrn>  (390) 
1639345-42-8

>  <smiles (First)>  (390) 


>  <Molecular weight>  (390) 
145.25009155273438

>  <name>  (390) 
unnamed [1639345-42-8]

>  <Outcome>  (390) 
1

>  <Molecule (RDKit Mol) (InChI Code)>  (390) 
InChI=1S/C6H12FNSi/c1-9(2,7)6-4-3-5-8/h3-4,6H2,1-2H3

>  <reference>  (390) 
ECHA

>  <molecule_form>  (390) 
V

>  <ID>  (390) 


>  <SMILES>  (390) 
C[Si](C)(F)CCCC#N

>  <ROMol>  (390) 
<rdkit.Chem.rdchem.Mol object at 0x0000027F5C149D60>

$$$$

     RDKit          2D

 27 26  0  0  0  0  0  0  0  0999 V2000
   -1.8860    2.1461    0.0000 C   0  0  0  0  0  0  0  0  0  0  0  0
   -2.2985    1.4317    0.0000 C   0  0  0  0  0  0  0  0  0  0  0  0
   -1.8860    0.7172    0.0000 C   0  0  0  0  0  0  0  0  0  0  0  0
   -1.0610    0.7172    0.0000 C   0  0  0  0  0  0  0  0  0  0  0  0
   -0.6485    0.0027    0.0000 Sn  0  0  0  0  0  4  0  0  0  0  0  0
   -1.3629   -0.4098    0.0000 C   0  0  0  0  0  0  0  0  0  0  0  0
   -2.0774    0.0027    0.0000 C   0  0  0  0  0  0  0  0  0  0  0  0
   -2.7919   -0.4098    0.0000 C   0  0  0  0  0  0  0  0  0  0  0  0
   -3.5063    0.0027    0.0000 C   0  0  0  0  0  0  0  0  0  0  0  0
    0.0660    0.4152    0.0000 C   0  0  0  0  0  0  0  0  0  0  0  0
    0.7805    0.0027    0.0000 C   0  0  0  0  0  0  0  0  0  0  0  0
    1.4949    0.4152    0.0000 C   0  0  0  0  0  0  0  0  0  0  0  0
    2.2094    0.0027    0.0000 C   0  0  0  0  0  0  0  0  0  0  0  0
   -0.2360   -0.7117    0.0000 O   0  0  0  0  0  0  0  0  0  0  0  0
   -0.6485   -1.4262    0.0000 Sn  0  0  0  0  0  4  0  0  0  0  0  0
   -1.0610   -2.1407    0.0000 C   0  0  0  0  0  0  0  0  0  0  0  0
   -0.6485   -2.8551    0.0000 C   0  0  0  0  0  0  0  0  0  0  0  0
   -1.0610   -3.5696    0.0000 C   0  0  0  0  0  0  0  0  0  0  0  0
   -0.6485   -4.2841    0.0000 C   0  0  0  0  0  0  0  0  0  0  0  0
   -1.3629   -1.0137    0.0000 C   0  0  0  0  0  0  0  0  0  0  0  0
   -2.0774   -1.4262    0.0000 C   0  0  0  0  0  0  0  0  0  0  0  0
   -2.7919   -1.0137    0.0000 C   0  0  0  0  0  0  0  0  0  0  0  0
   -3.5063   -1.4262    0.0000 C   0  0  0  0  0  0  0  0  0  0  0  0
    0.0660   -1.8387    0.0000 C   0  0  0  0  0  0  0  0  0  0  0  0
    0.0660   -2.6637    0.0000 C   0  0  0  0  0  0  0  0  0  0  0  0
    0.7805   -3.0762    0.0000 C   0  0  0  0  0  0  0  0  0  0  0  0
    0.7805   -3.9012    0.0000 C   0  0  0  0  0  0  0  0  0  0  0  0
  1  2  1  0
  2  3  1  0
  3  4  1  0
  4  5  1  0
  5  6  1  0
  6  7  1  0
  7  8  1  0
  8  9  1  0
  5 10  1  0
 10 11  1  0
 11 12  1  0
 12 13  1  0
  5 14  1  0
 14 15  1  0
 15 16  1  0
 16 17  1  0
 17 18  1  0
 18 19  1  0
 15 20  1  0
 20 21  1  0
 21 22  1  0
 22 23  1  0
 15 24  1  0
 24 25  1  0
 25 26  1  0
 26 27  1  0
M  END
>  <id>  (391) 
4014

>  <casrn>  (391) 
56-35-9

>  <smiles (First)>  (391) 


>  <Molecular weight>  (391) 
596.10498046875

>  <name>  (391) 
tributyl[(tributylstannyl)oxy]stannane

>  <Outcome>  (391) 
1

>  <Molecule (RDKit Mol) (InChI Code)>  (391) 
InChI=1S/6C4H9.O.2Sn/c6*1-3-4-2;;;/h6*1,3-4H2,2H3;;;

>  <reference>  (391) 
ECHA

>  <molecule_form>  (391) 
A

>  <ID>  (391) 


>  <SMILES>  (391) 
CCCC[Sn](CCCC)(CCCC)O[Sn](CCCC)(CCCC)CCCC

>  <ROMol>  (391) 
<rdkit.Chem.rdchem.Mol object at 0x0000027F5842F740>

$$$$

     RDKit          2D

  6  5  0  0  0  0  0  0  0  0999 V2000
    1.6484   -1.4317    0.0000 C   0  0  0  0  0  0  0  0  0  0  0  0
    1.2359   -0.7173    0.0000 Si  0  0  0  0  0  4  0  0  0  0  0  0
    1.9504   -0.3048    0.0000 Cl  0  0  0  0  0  0  0  0  0  0  0  0
    0.5214   -1.1298    0.0000 Cl  0  0  0  0  0  0  0  0  0  0  0  0
    0.8234   -0.0028    0.0000 C   0  0  0  0  0  0  0  0  0  0  0  0
   -0.0016   -0.0028    0.0000 Cl  0  0  0  0  0  0  0  0  0  0  0  0
  1  2  1  0
  2  3  1  0
  2  4  1  0
  2  5  1  0
  5  6  1  0
M  END
>  <id>  (392) 
2937

>  <casrn>  (392) 
1558-33-4

>  <smiles (First)>  (392) 


>  <Molecular weight>  (392) 
163.50559997558594

>  <name>  (392) 
dichloro(chloromethyl)methylsilane

>  <Outcome>  (392) 
1

>  <Molecule (RDKit Mol) (InChI Code)>  (392) 
InChI=1S/C2H5Cl3Si/c1-6(4,5)2-3/h2H2,1H3

>  <reference>  (392) 
ECHA

>  <molecule_form>  (392) 
V

>  <ID>  (392) 


>  <SMILES>  (392) 
C[Si](Cl)(Cl)CCl

>  <ROMol>  (392) 
<rdkit.Chem.rdchem.Mol object at 0x0000027F624DD820>

$$$$

     RDKit          2D

 10  9  0  0  0  0  0  0  0  0999 V2000
   -1.3664   -3.6145    0.0000 C   0  0  0  0  0  0  0  0  0  0  0  0
   -0.6519   -3.2020    0.0000 C   0  0  0  0  0  0  0  0  0  0  0  0
   -0.6519   -2.3770    0.0000 O   0  0  0  0  0  0  0  0  0  0  0  0
    0.0626   -1.9645    0.0000 C   0  0  0  0  0  0  0  0  0  0  0  0
    0.0626   -1.1395    0.0000 C   0  0  0  0  0  0  0  0  0  0  0  0
    0.7771   -0.7270    0.0000 O   0  0  0  0  0  0  0  0  0  0  0  0
    0.7771    0.0980    0.0000 C   0  0  0  0  0  0  0  0  0  0  0  0
    0.7771    0.9230    0.0000 C   0  0  0  0  0  0  0  0  0  0  0  0
    1.6021    0.0980    0.0000 C   0  0  0  0  0  0  0  0  0  0  0  0
   -0.0479    0.0980    0.0000 C   0  0  0  0  0  0  0  0  0  0  0  0
  1  2  1  0
  2  3  1  0
  3  4  1  0
  4  5  1  0
  5  6  1  0
  6  7  1  0
  7  8  1  0
  7  9  1  0
  7 10  1  0
M  END
>  <id>  (393) 
1319

>  <casrn>  (393) 
51422-54-9

>  <smiles (First)>  (393) 


>  <Molecular weight>  (393) 
146.22732543945312

>  <name>  (393) 
2-(2-ethoxyethoxy)-2-methylpropane

>  <Outcome>  (393) 
1

>  <Molecule (RDKit Mol) (InChI Code)>  (393) 
InChI=1S/C8H18O2/c1-5-9-6-7-10-8(2,3)4/h5-7H2,1-4H3

>  <reference>  (393) 
ECHA

>  <molecule_form>  (393) 
V

>  <ID>  (393) 


>  <SMILES>  (393) 
CCOCCOC(C)(C)C

>  <ROMol>  (393) 
<rdkit.Chem.rdchem.Mol object at 0x0000027F583F4430>

$$$$

     RDKit          2D

  7  6  0  0  0  0  0  0  0  0999 V2000
   -0.1914    0.7123    0.0000 C   0  0  0  0  0  0  0  0  0  0  0  0
    0.5230    1.1248    0.0000 C   0  0  0  0  0  0  0  0  0  0  0  0
    1.2375    0.7123    0.0000 C   0  0  0  0  0  0  0  0  0  0  0  0
    1.9520    1.1248    0.0000 C   0  0  0  0  0  0  0  0  0  0  0  0
    2.6664    0.7123    0.0000 C   0  0  0  0  0  0  0  0  0  0  0  0
    3.3809    1.1248    0.0000 O   0  0  0  0  0  0  0  0  0  0  0  0
    2.6664   -0.1127    0.0000 Cl  0  0  0  0  0  0  0  0  0  0  0  0
  1  2  1  0
  2  3  1  0
  3  4  1  0
  4  5  1  0
  5  6  2  0
  5  7  1  0
M  END
>  <id>  (394) 
3716

>  <casrn>  (394) 
638-29-9

>  <smiles (First)>  (394) 


>  <Molecular weight>  (394) 
120.57736206054688

>  <name>  (394) 
pentanoyl chloride

>  <Outcome>  (394) 
1

>  <Molecule (RDKit Mol) (InChI Code)>  (394) 
InChI=1S/C5H9ClO/c1-2-3-4-5(6)7/h2-4H2,1H3

>  <reference>  (394) 
ECHA

>  <molecule_form>  (394) 
V

>  <ID>  (394) 


>  <SMILES>  (394) 
CCCCC(=O)Cl

>  <ROMol>  (394) 
<rdkit.Chem.rdchem.Mol object at 0x0000027F584D5A50>

$$$$

     RDKit          2D

 11 10  0  0  0  0  0  0  0  0999 V2000
    2.8934    1.8930    0.0000 C   0  0  0  0  0  0  0  0  0  0  0  0
    2.1789    1.4805    0.0000 C   0  0  0  0  0  0  0  0  0  0  0  0
    1.4644    1.8930    0.0000 O   0  0  0  0  0  0  0  0  0  0  0  0
    0.7499    1.4805    0.0000 P   0  0  0  0  0  0  0  0  0  0  0  0
    0.3374    2.1949    0.0000 O   0  0  0  0  0  0  0  0  0  0  0  0
    0.0355    1.0680    0.0000 O   0  0  0  0  0  0  0  0  0  0  0  0
   -0.6790    1.4805    0.0000 C   0  0  0  0  0  0  0  0  0  0  0  0
   -1.3935    1.0680    0.0000 C   0  0  0  0  0  0  0  0  0  0  0  0
    1.1624    0.7660    0.0000 O   0  0  0  0  0  0  0  0  0  0  0  0
    0.7499    0.0515    0.0000 C   0  0  0  0  0  0  0  0  0  0  0  0
   -0.0751    0.0515    0.0000 C   0  0  0  0  0  0  0  0  0  0  0  0
  1  2  1  0
  2  3  1  0
  3  4  1  0
  4  5  2  0
  4  6  1  0
  6  7  1  0
  7  8  1  0
  4  9  1  0
  9 10  1  0
 10 11  1  0
M  END
>  <id>  (395) 
4064

>  <casrn>  (395) 
78-40-0

>  <smiles (First)>  (395) 


>  <Molecular weight>  (395) 
182.1546630859375

>  <name>  (395) 
triethyl phosphate

>  <Outcome>  (395) 
0

>  <Molecule (RDKit Mol) (InChI Code)>  (395) 
InChI=1S/C6H15O4P/c1-4-8-11(7,9-5-2)10-6-3/h4-6H2,1-3H3

>  <reference>  (395) 
ECHA

>  <molecule_form>  (395) 
A

>  <ID>  (395) 


>  <SMILES>  (395) 
CCOP(=O)(OCC)OCC

>  <ROMol>  (395) 
<rdkit.Chem.rdchem.Mol object at 0x0000027F58437820>

$$$$

     RDKit          2D

 17 16  0  0  0  0  0  0  0  0999 V2000
    6.6877    4.7169    0.0000 C   0  0  0  0  0  0  0  0  0  0  0  0
    7.4021    4.3044    0.0000 C   0  0  0  0  0  0  0  0  0  0  0  0
    8.1166    4.7169    0.0000 C   0  0  0  0  0  0  0  0  0  0  0  0
    8.8311    4.3044    0.0000 C   0  0  0  0  0  0  0  0  0  0  0  0
    9.5455    4.7169    0.0000 C   0  0  0  0  0  0  0  0  0  0  0  0
   10.2600    4.3044    0.0000 C   0  0  0  0  0  0  0  0  0  0  0  0
   10.9745    4.7169    0.0000 C   0  0  0  0  0  0  0  0  0  0  0  0
   11.6889    4.3044    0.0000 C   0  0  0  0  0  0  0  0  0  0  0  0
   12.4034    4.7169    0.0000 C   0  0  0  0  0  0  0  0  0  0  0  0
   13.1179    4.3044    0.0000 C   0  0  0  0  0  0  0  0  0  0  0  0
   13.8324    4.7169    0.0000 C   0  0  0  0  0  0  0  0  0  0  0  0
   14.5468    4.3044    0.0000 C   0  0  0  0  0  0  0  0  0  0  0  0
   14.5468    3.4794    0.0000 O   0  0  0  0  0  0  0  0  0  0  0  0
   15.2613    4.7169    0.0000 O   0  0  0  0  0  0  0  0  0  0  0  0
   15.9758    4.3044    0.0000 C   0  0  0  0  0  0  0  0  0  0  0  0
   16.6902    4.7169    0.0000 C   0  0  0  0  0  0  0  0  0  0  0  0
   15.9758    3.4794    0.0000 C   0  0  0  0  0  0  0  0  0  0  0  0
  1  2  1  0
  2  3  1  0
  3  4  1  0
  4  5  1  0
  5  6  1  0
  6  7  1  0
  7  8  1  0
  8  9  1  0
  9 10  1  0
 10 11  1  0
 11 12  1  0
 12 13  2  0
 12 14  1  0
 14 15  1  0
 15 16  1  0
 15 17  1  0
M  END
>  <id>  (396) 
3796

>  <casrn>  (396) 
10233-13-3

>  <smiles (First)>  (396) 


>  <Molecular weight>  (396) 
242.3975067138672

>  <name>  (396) 
propan-2-yl dodecanoate

>  <Outcome>  (396) 
0

>  <Molecule (RDKit Mol) (InChI Code)>  (396) 
InChI=1S/C15H30O2/c1-4-5-6-7-8-9-10-11-12-13-15(16)17-14(2)3/h14H,4-13H2,1-3H3

>  <reference>  (396) 
ECHA

>  <molecule_form>  (396) 
A

>  <ID>  (396) 


>  <SMILES>  (396) 
CCCCCCCCCCCC(=O)OC(C)C

>  <ROMol>  (396) 
<rdkit.Chem.rdchem.Mol object at 0x0000027F5C149660>

$$$$

     RDKit          2D

  8  7  0  0  0  0  0  0  0  0999 V2000
    1.7605    1.8432    0.0000 C   0  0  0  0  0  0  0  0  0  0  0  0
    2.4750    1.4307    0.0000 C   0  0  0  0  0  0  0  0  0  0  0  0
    3.1895    1.8432    0.0000 C   0  0  0  0  0  0  0  0  0  0  0  0
    3.9039    1.4307    0.0000 C   0  0  0  0  0  0  0  0  0  0  0  0
    4.6184    1.8432    0.0000 O   0  0  0  0  0  0  0  0  0  0  0  0
    5.3329    1.4307    0.0000 C   0  0  0  0  0  0  0  0  0  0  0  0
    6.0474    1.8432    0.0000 C   0  0  0  0  0  0  0  0  0  0  0  0
    5.3329    0.6057    0.0000 O   0  0  0  0  0  0  0  0  0  0  0  0
  1  2  1  0
  2  3  1  0
  3  4  1  0
  4  5  1  0
  5  6  1  0
  6  7  1  0
  6  8  2  0
M  END
>  <id>  (397) 
2714; 2717; 2710; 2716; 2715

>  <casrn>  (397) 
123-86-4

>  <smiles (First)>  (397) 


>  <Molecular weight>  (397) 
116.1582794189453

>  <name>  (397) 
butyl acetate

>  <Outcome>  (397) 
0

>  <Molecule (RDKit Mol) (InChI Code)>  (397) 
InChI=1S/C6H12O2/c1-3-4-5-8-6(2)7/h3-5H2,1-2H3

>  <reference>  (397) 
ECHA

>  <molecule_form>  (397) 
V; A

>  <ID>  (397) 


>  <SMILES>  (397) 
CCCCOC(C)=O

>  <ROMol>  (397) 
<rdkit.Chem.rdchem.Mol object at 0x0000027F584DE6D0>

$$$$

     RDKit          2D

  7  6  0  0  0  0  0  0  0  0999 V2000
    1.7590    1.6178    0.0000 C   0  0  0  0  0  0  0  0  0  0  0  0
    1.3465    0.9033    0.0000 C   0  0  0  0  0  0  0  0  0  0  0  0
    0.6320    1.3158    0.0000 C   0  0  0  0  0  0  0  0  0  0  0  0
    2.0610    0.4908    0.0000 C   0  0  0  0  0  0  0  0  0  0  0  0
    0.9340    0.1889    0.0000 N   0  0  0  0  0  0  0  0  0  0  0  0
    0.1090    0.1889    0.0000 C   0  0  0  0  0  0  0  0  0  0  0  0
   -0.7160    0.1889    0.0000 O   0  0  0  0  0  0  0  0  0  0  0  0
  1  2  1  0
  2  3  1  0
  2  4  1  0
  2  5  1  0
  5  6  2  0
  6  7  2  0
M  END
>  <id>  (398) 
1491

>  <casrn>  (398) 
1609-86-5

>  <smiles (First)>  (398) 


>  <Molecular weight>  (398) 
99.13105773925781

>  <name>  (398) 
2-isocyanato-2-methylpropane

>  <Outcome>  (398) 
1

>  <Molecule (RDKit Mol) (InChI Code)>  (398) 
InChI=1S/C5H9NO/c1-5(2,3)6-4-7/h1-3H3

>  <reference>  (398) 
ECHA

>  <molecule_form>  (398) 
V

>  <ID>  (398) 


>  <SMILES>  (398) 
CC(C)(C)N=C=O

>  <ROMol>  (398) 
<rdkit.Chem.rdchem.Mol object at 0x0000027F624B1820>

$$$$

     RDKit          2D

 11 11  0  0  0  0  0  0  0  0999 V2000
    0.7145    2.8875    0.0000 F   0  0  0  0  0  0  0  0  0  0  0  0
    0.7145    2.0625    0.0000 C   0  0  0  0  0  0  0  0  0  0  0  0
   -0.1105    2.0625    0.0000 F   0  0  0  0  0  0  0  0  0  0  0  0
    1.5395    2.0625    0.0000 F   0  0  0  0  0  0  0  0  0  0  0  0
    0.7145    1.2375    0.0000 C   0  0  0  0  0  0  0  0  0  0  0  0
    1.4289    0.8250    0.0000 C   0  0  0  0  0  0  0  0  0  0  0  0
    1.4289   -0.0000    0.0000 C   0  0  0  0  0  0  0  0  0  0  0  0
    0.7145   -0.4125    0.0000 C   0  0  0  0  0  0  0  0  0  0  0  0
    0.7145   -1.2375    0.0000 Cl  0  0  0  0  0  0  0  0  0  0  0  0
    0.0000    0.0000    0.0000 C   0  0  0  0  0  0  0  0  0  0  0  0
    0.0000    0.8250    0.0000 C   0  0  0  0  0  0  0  0  0  0  0  0
  1  2  1  0
  2  3  1  0
  2  4  1  0
  2  5  1  0
  5  6  2  0
  6  7  1  0
  7  8  2  0
  8  9  1  0
  8 10  1  0
 10 11  2  0
  5 11  1  0
M  END
>  <id>  (399) 
1145

>  <casrn>  (399) 
98-56-6

>  <smiles (First)>  (399) 


>  <Molecular weight>  (399) 
180.55487060546875

>  <name>  (399) 
1-chloro-4-(trifluoromethyl)benzene

>  <Outcome>  (399) 
0

>  <Molecule (RDKit Mol) (InChI Code)>  (399) 
InChI=1S/C7H4ClF3/c8-6-3-1-5(2-4-6)7(9,10)11/h1-4H

>  <reference>  (399) 
ECHA

>  <molecule_form>  (399) 
A

>  <ID>  (399) 


>  <SMILES>  (399) 
FC(F)(F)c1ccc(Cl)cc1

>  <ROMol>  (399) 
<rdkit.Chem.rdchem.Mol object at 0x0000027F585E2200>

$$$$

     RDKit          2D

 20 19  0  0  0  0  0  0  0  0999 V2000
    2.8458    2.2090    0.0000 O   0  0  0  0  0  0  0  0  0  0  0  0
    2.4333    1.4945    0.0000 P   0  0  0  0  0  0  0  0  0  0  0  0
    1.7188    1.9070    0.0000 O   0  0  0  0  0  0  0  0  0  0  0  0
    1.7188    2.7320    0.0000 C   0  0  0  0  0  0  0  0  0  0  0  0
    2.4333    3.1445    0.0000 C   0  0  0  0  0  0  0  0  0  0  0  0
    2.4333    3.9695    0.0000 Cl  0  0  0  0  0  0  0  0  0  0  0  0
    1.0043    3.1445    0.0000 C   0  0  0  0  0  0  0  0  0  0  0  0
    1.0043    3.9695    0.0000 Cl  0  0  0  0  0  0  0  0  0  0  0  0
    3.1477    1.0820    0.0000 O   0  0  0  0  0  0  0  0  0  0  0  0
    3.8622    1.4945    0.0000 C   0  0  0  0  0  0  0  0  0  0  0  0
    4.5767    1.0820    0.0000 C   0  0  0  0  0  0  0  0  0  0  0  0
    5.2912    1.4945    0.0000 Cl  0  0  0  0  0  0  0  0  0  0  0  0
    3.8622    2.3195    0.0000 C   0  0  0  0  0  0  0  0  0  0  0  0
    4.5767    2.7320    0.0000 Cl  0  0  0  0  0  0  0  0  0  0  0  0
    2.0208    0.7800    0.0000 O   0  0  0  0  0  0  0  0  0  0  0  0
    1.1958    0.7800    0.0000 C   0  0  0  0  0  0  0  0  0  0  0  0
    0.7833    1.4945    0.0000 C   0  0  0  0  0  0  0  0  0  0  0  0
    1.1958    2.2090    0.0000 Cl  0  0  0  0  0  0  0  0  0  0  0  0
    0.7833    0.0656    0.0000 C   0  0  0  0  0  0  0  0  0  0  0  0
   -0.0417    0.0656    0.0000 Cl  0  0  0  0  0  0  0  0  0  0  0  0
  1  2  2  0
  2  3  1  0
  3  4  1  0
  4  5  1  0
  5  6  1  0
  4  7  1  0
  7  8  1  0
  2  9  1  0
  9 10  1  0
 10 11  1  0
 11 12  1  0
 10 13  1  0
 13 14  1  0
  2 15  1  0
 15 16  1  0
 16 17  1  0
 17 18  1  0
 16 19  1  0
 19 20  1  0
M  END
>  <id>  (400) 
4111

>  <casrn>  (400) 
13674-87-8

>  <smiles (First)>  (400) 


>  <Molecular weight>  (400) 
430.9047546386719

>  <name>  (400) 
tris(1,3-dichloropropan-2-yl) phosphate

>  <Outcome>  (400) 
0

>  <Molecule (RDKit Mol) (InChI Code)>  (400) 
InChI=1S/C9H15Cl6O4P/c10-1-7(2-11)17-20(16,18-8(3-12)4-13)19-9(5-14)6-15/h7-9H,1-6H2

>  <reference>  (400) 
ECHA

>  <molecule_form>  (400) 
A

>  <ID>  (400) 


>  <SMILES>  (400) 
O=P(OC(CCl)CCl)(OC(CCl)CCl)OC(CCl)CCl

>  <ROMol>  (400) 
<rdkit.Chem.rdchem.Mol object at 0x0000027F5842FB30>

$$$$

     RDKit          2D

  6  5  0  0  0  0  0  0  0  0999 V2000
    1.2375    0.7145    0.0000 F   0  0  0  0  0  0  0  0  0  0  0  0
    0.8250   -0.0000    0.0000 C   0  0  0  0  0  0  0  0  0  0  0  0
    1.2375   -0.7145    0.0000 F   0  0  0  0  0  0  0  0  0  0  0  0
    0.0000   -0.0000    0.0000 C   0  0  0  0  0  0  0  0  0  0  0  0
   -0.4125   -0.7145    0.0000 F   0  0  0  0  0  0  0  0  0  0  0  0
   -0.4125    0.7145    0.0000 F   0  0  0  0  0  0  0  0  0  0  0  0
  1  2  1  0
  2  3  1  0
  2  4  2  0
  4  5  1  0
  4  6  1  0
M  END
>  <id>  (401) 
3975

>  <casrn>  (401) 
116-14-3

>  <smiles (First)>  (401) 


>  <Molecular weight>  (401) 
100.0150146484375

>  <name>  (401) 
tetrafluoroethene

>  <Outcome>  (401) 
0

>  <Molecule (RDKit Mol) (InChI Code)>  (401) 
InChI=1S/C2F4/c3-1(4)2(5)6

>  <reference>  (401) 
ECHA

>  <molecule_form>  (401) 
G

>  <ID>  (401) 


>  <SMILES>  (401) 
FC(F)=C(F)F

>  <ROMol>  (401) 
<rdkit.Chem.rdchem.Mol object at 0x0000027F5842F120>

$$$$

     RDKit          2D

  6  5  0  0  0  0  0  0  0  0999 V2000
    0.1669   -0.9663    0.0000 C   0  0  0  0  0  0  0  0  0  0  0  0
    0.8814   -0.5538    0.0000 C   0  0  0  0  0  0  0  0  0  0  0  0
    0.8814    0.2712    0.0000 C   0  0  0  0  0  0  0  0  0  0  0  0
    0.8814    1.0962    0.0000 C   0  0  0  0  0  0  0  0  0  0  0  0
    1.7064    0.2712    0.0000 C   0  0  0  0  0  0  0  0  0  0  0  0
    0.0564    0.2712    0.0000 O   0  0  0  0  0  0  0  0  0  0  0  0
  1  2  2  0
  2  3  1  0
  3  4  1  0
  3  5  1  0
  3  6  1  0
M  END
>  <id>  (402) 
1510

>  <casrn>  (402) 
115-18-4

>  <smiles (First)>  (402) 


>  <Molecular weight>  (402) 
86.1323013305664

>  <name>  (402) 
2-methylbut-3-en-2-ol

>  <Outcome>  (402) 
0

>  <Molecule (RDKit Mol) (InChI Code)>  (402) 
InChI=1S/C5H10O/c1-4-5(2,3)6/h4,6H,1H2,2-3H3

>  <reference>  (402) 
ECHA

>  <molecule_form>  (402) 
V

>  <ID>  (402) 


>  <SMILES>  (402) 
C=CC(C)(C)O

>  <ROMol>  (402) 
<rdkit.Chem.rdchem.Mol object at 0x0000027F624DDEB0>

$$$$

     RDKit          2D

 15 14  0  0  0  0  0  0  0  0999 V2000
    1.7899    1.8870    0.0000 C   0  0  0  0  0  0  0  0  0  0  0  0
    2.5044    1.4745    0.0000 C   0  0  0  0  0  0  0  0  0  0  0  0
    3.2188    1.8870    0.0000 C   0  0  0  0  0  0  0  0  0  0  0  0
    3.9333    1.4745    0.0000 C   0  0  0  0  0  0  0  0  0  0  0  0
    4.6478    1.8870    0.0000 C   0  0  0  0  0  0  0  0  0  0  0  0
    4.6478    2.7120    0.0000 C   0  0  0  0  0  0  0  0  0  0  0  0
    5.3622    3.1245    0.0000 C   0  0  0  0  0  0  0  0  0  0  0  0
    5.3622    1.4745    0.0000 C   0  0  0  0  0  0  0  0  0  0  0  0
    5.3622    0.6495    0.0000 O   0  0  0  0  0  0  0  0  0  0  0  0
    6.0767    1.8870    0.0000 O   0  0  0  0  0  0  0  0  0  0  0  0
    6.7912    1.4745    0.0000 O   0  0  0  0  0  0  0  0  0  0  0  0
    7.5056    1.8870    0.0000 C   0  0  0  0  0  0  0  0  0  0  0  0
    8.2201    2.2995    0.0000 C   0  0  0  0  0  0  0  0  0  0  0  0
    7.9181    1.1725    0.0000 C   0  0  0  0  0  0  0  0  0  0  0  0
    7.0931    2.6015    0.0000 C   0  0  0  0  0  0  0  0  0  0  0  0
  1  2  1  0
  2  3  1  0
  3  4  1  0
  4  5  1  0
  5  6  1  0
  6  7  1  0
  5  8  1  0
  8  9  2  0
  8 10  1  0
 10 11  1  0
 11 12  1  0
 12 13  1  0
 12 14  1  0
 12 15  1  0
M  END
>  <id>  (403) 
3912

>  <casrn>  (403) 
3006-82-4

>  <smiles (First)>  (403) 


>  <Molecular weight>  (403) 
216.31716918945312

>  <name>  (403) 
tert-butyl 2-ethylhexaneperoxoate

>  <Outcome>  (403) 
0

>  <Molecule (RDKit Mol) (InChI Code)>  (403) 
InChI=1S/C12H24O3/c1-6-8-9-10(7-2)11(13)14-15-12(3,4)5/h10H,6-9H2,1-5H3

>  <reference>  (403) 
ECHA

>  <molecule_form>  (403) 
A

>  <ID>  (403) 


>  <SMILES>  (403) 
CCCCC(CC)C(=O)OOC(C)(C)C

>  <ROMol>  (403) 
<rdkit.Chem.rdchem.Mol object at 0x0000027F78E2C120>

$$$$

     RDKit          2D

 15 14  0  0  0  0  0  0  0  0999 V2000
   -0.7748   -1.9728    0.0000 C   0  0  0  0  0  0  0  0  0  0  0  0
   -0.7748   -1.1478    0.0000 C   0  0  0  0  0  0  0  0  0  0  0  0
   -0.0603   -0.7353    0.0000 C   0  0  0  0  0  0  0  0  0  0  0  0
   -0.0603    0.0897    0.0000 O   0  0  0  0  0  0  0  0  0  0  0  0
    0.6542   -1.1478    0.0000 O   0  0  0  0  0  0  0  0  0  0  0  0
    1.3686   -0.7353    0.0000 Si  0  0  0  0  0  4  0  0  0  0  0  0
    2.0831   -0.3228    0.0000 C   0  0  0  0  0  0  0  0  0  0  0  0
    2.0831    0.5022    0.0000 C   0  0  0  0  0  0  0  0  0  0  0  0
    2.7976   -0.7353    0.0000 C   0  0  0  0  0  0  0  0  0  0  0  0
    1.7811   -1.4497    0.0000 C   0  0  0  0  0  0  0  0  0  0  0  0
    2.6061   -1.4497    0.0000 C   0  0  0  0  0  0  0  0  0  0  0  0
    1.3686   -2.1642    0.0000 C   0  0  0  0  0  0  0  0  0  0  0  0
    0.9561   -0.0208    0.0000 C   0  0  0  0  0  0  0  0  0  0  0  0
    1.3686    0.6937    0.0000 C   0  0  0  0  0  0  0  0  0  0  0  0
    0.2887    0.4641    0.0000 C   0  0  0  0  0  0  0  0  0  0  0  0
  1  2  2  0
  2  3  1  0
  3  4  2  0
  3  5  1  0
  5  6  1  0
  6  7  1  0
  7  8  1  0
  7  9  1  0
  6 10  1  0
 10 11  1  0
 10 12  1  0
  6 13  1  0
 13 14  1  0
 13 15  1  0
M  END
>  <id>  (404) 
627

>  <casrn>  (404) 
157859-20-6

>  <smiles (First)>  (404) 


>  <Molecular weight>  (404) 
228.40325927734375

>  <name>  (404) 
-

>  <Outcome>  (404) 
0

>  <Molecule (RDKit Mol) (InChI Code)>  (404) 
InChI=1S/C12H24O2Si/c1-8-12(13)14-15(9(2)3,10(4)5)11(6)7/h8-11H,1H2,2-7H3

>  <reference>  (404) 
ECHA

>  <molecule_form>  (404) 
A

>  <ID>  (404) 


>  <SMILES>  (404) 
C=CC(=O)O[Si](C(C)C)(C(C)C)C(C)C

>  <ROMol>  (404) 
<rdkit.Chem.rdchem.Mol object at 0x0000027F5846E040>

$$$$

     RDKit          2D

 26 28  0  0  0  0  0  0  0  0999 V2000
    1.9504   -0.3396    0.0000 C   0  0  0  0  0  0  0  0  0  0  0  0
    2.3385    0.3884    0.0000 C   0  0  0  0  0  0  0  0  0  0  0  0
    2.9881   -0.1202    0.0000 C   0  0  0  0  0  0  0  0  0  0  0  0
    1.5542    0.6441    0.0000 C   0  0  0  0  0  0  0  0  0  0  0  0
    1.3835    1.4513    0.0000 C   0  0  0  0  0  0  0  0  0  0  0  0
    1.9971    2.0027    0.0000 C   0  0  0  0  0  0  0  0  0  0  0  0
    2.7815    1.7469    0.0000 C   0  0  0  0  0  0  0  0  0  0  0  0
    2.8972    2.5638    0.0000 C   0  0  0  0  0  0  0  0  0  0  0  0
    3.6060    1.7749    0.0000 C   0  0  0  0  0  0  0  0  0  0  0  0
    2.9522    0.9398    0.0000 N   0  0  0  0  0  0  0  0  0  0  0  0
    0.9460    1.0033    0.0000 O   0  0  0  0  0  0  0  0  0  0  0  0
    0.0486    1.4527    0.0000 C   0  0  0  0  0  0  0  0  0  0  0  0
    0.6611    0.9000    0.0000 C   0  0  0  0  0  0  0  0  0  0  0  0
    0.4887    0.0932    0.0000 C   0  0  0  0  0  0  0  0  0  0  0  0
   -0.2961   -0.1609    0.0000 C   0  0  0  0  0  0  0  0  0  0  0  0
   -0.9087    0.3918    0.0000 C   0  0  0  0  0  0  0  0  0  0  0  0
   -1.6936    0.1376    0.0000 C   0  0  0  0  0  0  0  0  0  0  0  0
   -2.3061    0.6903    0.0000 C   0  0  0  0  0  0  0  0  0  0  0  0
   -2.1337    1.4971    0.0000 C   0  0  0  0  0  0  0  0  0  0  0  0
   -1.3488    1.7512    0.0000 C   0  0  0  0  0  0  0  0  0  0  0  0
   -1.1765    2.5580    0.0000 C   0  0  0  0  0  0  0  0  0  0  0  0
   -0.3916    2.8121    0.0000 C   0  0  0  0  0  0  0  0  0  0  0  0
   -0.0096    2.2232    0.0000 C   0  0  0  0  0  0  0  0  0  0  0  0
    0.3043    2.2370    0.0000 N   0  0  0  0  0  0  0  0  0  0  0  0
    1.1293    2.2362    0.0000 C   0  0  0  0  0  0  0  0  0  0  0  0
    1.6150    2.9031    0.0000 O   0  0  0  0  0  0  0  0  0  0  0  0
  1  2  1  0
  2  3  1  0
  2  4  1  0
  4  5  1  0
  5  6  1  0
  6  7  1  0
  7  8  1  0
  7  9  1  0
  7 10  1  0
  2 10  1  0
  5 11  1  0
 11 12  1  0
 12 13  1  0
 13 14  1  0
 14 15  1  0
 15 16  1  0
 16 17  1  0
 17 18  1  0
 18 19  1  0
 19 20  1  0
 20 21  1  0
 21 22  1  0
 22 23  1  0
 12 23  1  0
 12 24  1  0
 24 25  1  0
  5 25  1  0
 25 26  2  0
M  END
>  <id>  (405) 
1251

>  <casrn>  (405) 
64338-16-5

>  <smiles (First)>  (405) 


>  <Molecular weight>  (405) 
364.5652160644531

>  <name>  (405) 
2,2,4,4-tetramethyl-7-oxa-3,20-diazadispiro[5.1.11????.2????]henicosan-21-one

>  <Outcome>  (405) 
1

>  <Molecule (RDKit Mol) (InChI Code)>  (405) 
InChI=1S/C22H40N2O2/c1-19(2)16-21(17-20(3,4)24-19)18(25)23-22(26-21)14-12-10-8-6-5-7-9-11-13-15-22/h24H,5-17H2,1-4H3,(H,23,25)

>  <reference>  (405) 
ECHA

>  <molecule_form>  (405) 
A

>  <ID>  (405) 


>  <SMILES>  (405) 
CC1(C)CC2(CC(C)(C)N1)OC1(CCCCCCCCCCC1)NC2=O

>  <ROMol>  (405) 
<rdkit.Chem.rdchem.Mol object at 0x0000027F584287B0>

$$$$

     RDKit          2D

 32 34  0  0  0  0  0  0  0  0999 V2000
   -2.0775    0.1057    0.0000 O   0  0  0  0  0  0  0  0  0  0  0  0
   -1.3630   -0.3068    0.0000 C   0  0  0  0  0  0  0  0  0  0  0  0
   -0.6485   -0.7193    0.0000 N   0  0  0  0  0  0  0  0  0  0  0  0
   -0.6485   -1.5443    0.0000 C   0  0  0  0  0  0  0  0  0  0  0  0
    0.0659   -1.9568    0.0000 C   0  0  0  0  0  0  0  0  0  0  0  0
    0.0659   -2.7818    0.0000 C   0  0  0  0  0  0  0  0  0  0  0  0
   -0.6485   -3.1943    0.0000 C   0  0  0  0  0  0  0  0  0  0  0  0
   -0.6485   -4.0193    0.0000 O   0  0  0  0  0  0  0  0  0  0  0  0
    0.0659   -4.4318    0.0000 P   0  0  0  0  0  0  0  0  0  0  0  0
   -0.3466   -5.1463    0.0000 S   0  0  0  0  0  0  0  0  0  0  0  0
    0.7804   -4.8443    0.0000 O   0  0  0  0  0  0  0  0  0  0  0  0
    0.7804   -5.6693    0.0000 C   0  0  0  0  0  0  0  0  0  0  0  0
    1.4949   -6.0818    0.0000 C   0  0  0  0  0  0  0  0  0  0  0  0
    1.4949   -6.9068    0.0000 C   0  0  0  0  0  0  0  0  0  0  0  0
    0.7804   -7.3193    0.0000 C   0  0  0  0  0  0  0  0  0  0  0  0
    0.7804   -8.1443    0.0000 N   0  0  0  0  0  0  0  0  0  0  0  0
    1.4949   -8.5568    0.0000 C   0  0  0  0  0  0  0  0  0  0  0  0
    2.2093   -8.9693    0.0000 O   0  0  0  0  0  0  0  0  0  0  0  0
    0.0659   -6.9068    0.0000 C   0  0  0  0  0  0  0  0  0  0  0  0
    0.0659   -6.0818    0.0000 C   0  0  0  0  0  0  0  0  0  0  0  0
    0.4784   -3.7173    0.0000 O   0  0  0  0  0  0  0  0  0  0  0  0
    1.3034   -3.7173    0.0000 C   0  0  0  0  0  0  0  0  0  0  0  0
    1.7159   -3.0029    0.0000 C   0  0  0  0  0  0  0  0  0  0  0  0
    2.5409   -3.0029    0.0000 C   0  0  0  0  0  0  0  0  0  0  0  0
    2.9534   -3.7173    0.0000 C   0  0  0  0  0  0  0  0  0  0  0  0
    3.7784   -3.7173    0.0000 N   0  0  0  0  0  0  0  0  0  0  0  0
    4.1909   -4.4318    0.0000 C   0  0  0  0  0  0  0  0  0  0  0  0
    4.6034   -5.1463    0.0000 O   0  0  0  0  0  0  0  0  0  0  0  0
    2.5409   -4.4318    0.0000 C   0  0  0  0  0  0  0  0  0  0  0  0
    1.7159   -4.4318    0.0000 C   0  0  0  0  0  0  0  0  0  0  0  0
   -1.3630   -2.7818    0.0000 C   0  0  0  0  0  0  0  0  0  0  0  0
   -1.3630   -1.9568    0.0000 C   0  0  0  0  0  0  0  0  0  0  0  0
  1  2  2  0
  2  3  2  0
  3  4  1  0
  4  5  2  0
  5  6  1  0
  6  7  2  0
  7  8  1  0
  8  9  1  0
  9 10  2  0
  9 11  1  0
 11 12  1  0
 12 13  2  0
 13 14  1  0
 14 15  2  0
 15 16  1  0
 16 17  2  0
 17 18  2  0
 15 19  1  0
 19 20  2  0
 12 20  1  0
  9 21  1  0
 21 22  1  0
 22 23  2  0
 23 24  1  0
 24 25  2  0
 25 26  1  0
 26 27  2  0
 27 28  2  0
 25 29  1  0
 29 30  2  0
 22 30  1  0
  7 31  1  0
 31 32  2  0
  4 32  1  0
M  END
>  <id>  (406) 
2657

>  <casrn>  (406) 
4151-51-3

>  <smiles (First)>  (406) 


>  <Molecular weight>  (406) 
465.375244140625

>  <name>  (406) 
bis(4-isocyanatophenyl) [(4-isocyanatophenyl)sulfanyl]phosphonate

>  <Outcome>  (406) 
0

>  <Molecule (RDKit Mol) (InChI Code)>  (406) 
InChI=1S/C21H12N3O6PS/c25-13-22-16-1-7-19(8-2-16)28-31(32,29-20-9-3-17(4-10-20)23-14-26)30-21-11-5-18(6-12-21)24-15-27/h1-12H

>  <reference>  (406) 
ECHA

>  <molecule_form>  (406) 
A

>  <ID>  (406) 


>  <SMILES>  (406) 
O=C=Nc1ccc(OP(=S)(Oc2ccc(N=C=O)cc2)Oc2ccc(N=C=O)cc2)cc1

>  <ROMol>  (406) 
<rdkit.Chem.rdchem.Mol object at 0x0000027F584AC740>

$$$$

     RDKit          2D

  2  1  0  0  0  0  0  0  0  0999 V2000
    0.8250    0.0000    0.0000 C   0  0  0  0  0  0  0  0  0  0  0  0
    0.0000   -0.0000    0.0000 N   0  0  0  0  0  0  0  0  0  0  0  0
  1  2  3  0
M  END
>  <id>  (407) 
3216

>  <casrn>  (407) 
74-90-8

>  <smiles (First)>  (407) 


>  <Molecular weight>  (407) 
27.025339126586914

>  <name>  (407) 
formonitrile

>  <Outcome>  (407) 
1

>  <Molecule (RDKit Mol) (InChI Code)>  (407) 
InChI=1S/CHN/c1-2/h1H

>  <reference>  (407) 
ECHA

>  <molecule_form>  (407) 
G

>  <ID>  (407) 


>  <SMILES>  (407) 
C#N

>  <ROMol>  (407) 
<rdkit.Chem.rdchem.Mol object at 0x0000027F58408970>

$$$$

     RDKit          2D

 10  9  0  0  0  0  0  0  0  0999 V2000
    2.2835    2.1434    0.0000 O   0  0  0  0  0  0  0  0  0  0  0  0
    2.9980    2.5559    0.0000 C   0  0  0  0  0  0  0  0  0  0  0  0
    3.7125    2.1434    0.0000 C   0  0  0  0  0  0  0  0  0  0  0  0
    4.4269    2.5559    0.0000 O   0  0  0  0  0  0  0  0  0  0  0  0
    5.1414    2.1434    0.0000 C   0  0  0  0  0  0  0  0  0  0  0  0
    5.8559    2.5559    0.0000 C   0  0  0  0  0  0  0  0  0  0  0  0
    6.5704    2.1434    0.0000 O   0  0  0  0  0  0  0  0  0  0  0  0
    7.2848    2.5559    0.0000 C   0  0  0  0  0  0  0  0  0  0  0  0
    7.9993    2.1434    0.0000 C   0  0  0  0  0  0  0  0  0  0  0  0
    8.7138    2.5559    0.0000 O   0  0  0  0  0  0  0  0  0  0  0  0
  1  2  1  0
  2  3  1  0
  3  4  1  0
  4  5  1  0
  5  6  1  0
  6  7  1  0
  7  8  1  0
  8  9  1  0
  9 10  1  0
M  END
>  <id>  (408) 
1403

>  <casrn>  (408) 
112-27-6

>  <smiles (First)>  (408) 


>  <Molecular weight>  (408) 
150.17295837402344

>  <name>  (408) 
2-[2-(2-hydroxyethoxy)ethoxy]ethan-1-ol

>  <Outcome>  (408) 
0

>  <Molecule (RDKit Mol) (InChI Code)>  (408) 
InChI=1S/C6H14O4/c7-1-3-9-5-6-10-4-2-8/h7-8H,1-6H2

>  <reference>  (408) 
ECHA

>  <molecule_form>  (408) 
A

>  <ID>  (408) 


>  <SMILES>  (408) 
OCCOCCOCCO

>  <ROMol>  (408) 
<rdkit.Chem.rdchem.Mol object at 0x0000027F78E2CDD0>

$$$$

     RDKit          2D

 11 11  0  0  0  0  0  0  0  0999 V2000
   -0.7656    3.7443    0.0000 C   0  0  0  0  0  0  0  0  0  0  0  0
   -0.0511    3.3318    0.0000 C   0  0  0  0  0  0  0  0  0  0  0  0
    0.6634    3.7443    0.0000 N   0  0  0  0  0  0  0  0  0  0  0  0
   -0.0511    2.5068    0.0000 C   0  0  0  0  0  0  0  0  0  0  0  0
    0.6634    2.0943    0.0000 C   0  0  0  0  0  0  0  0  0  0  0  0
    0.6634    1.2693    0.0000 C   0  0  0  0  0  0  0  0  0  0  0  0
    1.3779    0.8568    0.0000 C   0  0  0  0  0  0  0  0  0  0  0  0
    1.3779    0.0318    0.0000 C   0  0  0  0  0  0  0  0  0  0  0  0
    0.6634   -0.3807    0.0000 C   0  0  0  0  0  0  0  0  0  0  0  0
   -0.0511    0.0318    0.0000 C   0  0  0  0  0  0  0  0  0  0  0  0
   -0.0511    0.8568    0.0000 C   0  0  0  0  0  0  0  0  0  0  0  0
  1  2  1  0
  2  3  1  0
  2  4  1  0
  4  5  1  0
  5  6  1  0
  6  7  2  0
  7  8  1  0
  8  9  2  0
  9 10  1  0
 10 11  2  0
  6 11  1  0
M  END
>  <id>  (409) 
1849

>  <casrn>  (409) 
22374-89-6

>  <smiles (First)>  (409) 


>  <Molecular weight>  (409) 
149.23280334472656

>  <name>  (409) 
4-phenylbutan-2-amine

>  <Outcome>  (409) 
0

>  <Molecule (RDKit Mol) (InChI Code)>  (409) 
InChI=1S/C10H15N/c1-9(11)7-8-10-5-3-2-4-6-10/h2-6,9H,7-8,11H2,1H3

>  <reference>  (409) 
ECHA

>  <molecule_form>  (409) 
A

>  <ID>  (409) 


>  <SMILES>  (409) 
CC(N)CCc1ccccc1

>  <ROMol>  (409) 
<rdkit.Chem.rdchem.Mol object at 0x0000027F5C144900>

$$$$

     RDKit          2D

 11 10  0  0  0  0  0  0  0  0999 V2000
   -0.6056   -3.2990    0.0000 C   0  0  0  0  0  0  0  0  0  0  0  0
   -0.6056   -2.4740    0.0000 C   0  0  0  0  0  0  0  0  0  0  0  0
   -1.3201   -2.0615    0.0000 C   0  0  0  0  0  0  0  0  0  0  0  0
    0.1088   -2.0615    0.0000 C   0  0  0  0  0  0  0  0  0  0  0  0
    0.8233   -2.4740    0.0000 O   0  0  0  0  0  0  0  0  0  0  0  0
    0.1088   -1.2365    0.0000 O   0  0  0  0  0  0  0  0  0  0  0  0
    0.8233   -0.8240    0.0000 C   0  0  0  0  0  0  0  0  0  0  0  0
    0.8233    0.0010    0.0000 C   0  0  0  0  0  0  0  0  0  0  0  0
    0.8233    0.8260    0.0000 F   0  0  0  0  0  0  0  0  0  0  0  0
    1.6483    0.0010    0.0000 F   0  0  0  0  0  0  0  0  0  0  0  0
   -0.0017    0.0010    0.0000 F   0  0  0  0  0  0  0  0  0  0  0  0
  1  2  2  0
  2  3  1  0
  2  4  1  0
  4  5  2  0
  4  6  1  0
  6  7  1  0
  7  8  1  0
  8  9  1  0
  8 10  1  0
  8 11  1  0
M  END
>  <id>  (410) 
1241; 1240

>  <casrn>  (410) 
352-87-4

>  <smiles (First)>  (410) 


>  <Molecular weight>  (410) 
168.11380004882812

>  <name>  (410) 
2,2,2-trifluoroethyl methacrylate

>  <Outcome>  (410) 
1

>  <Molecule (RDKit Mol) (InChI Code)>  (410) 
InChI=1S/C6H7F3O2/c1-4(2)5(10)11-3-6(7,8)9/h1,3H2,2H3

>  <reference>  (410) 
ECHA

>  <molecule_form>  (410) 
V

>  <ID>  (410) 


>  <SMILES>  (410) 
C=C(C)C(=O)OCC(F)(F)F

>  <ROMol>  (410) 
<rdkit.Chem.rdchem.Mol object at 0x0000027F5846E0B0>

$$$$

     RDKit          2D

 11 10  0  0  0  0  0  0  0  0999 V2000
    0.0412   -1.6691    0.0000 C   0  0  0  0  0  0  0  0  0  0  0  0
    0.8662   -1.6691    0.0000 C   0  0  0  0  0  0  0  0  0  0  0  0
    1.2787   -0.9546    0.0000 N   0  0  0  0  0  0  0  0  0  0  0  0
    0.8662   -0.2401    0.0000 C   0  0  0  0  0  0  0  0  0  0  0  0
    1.2787    0.4743    0.0000 C   0  0  0  0  0  0  0  0  0  0  0  0
    2.1037   -0.9546    0.0000 C   0  0  0  0  0  0  0  0  0  0  0  0
    2.5162   -1.6691    0.0000 O   0  0  0  0  0  0  0  0  0  0  0  0
    2.5162   -0.2401    0.0000 C   0  0  0  0  0  0  0  0  0  0  0  0
    3.3412   -0.2401    0.0000 C   0  0  0  0  0  0  0  0  0  0  0  0
    3.7537    0.4743    0.0000 C   0  0  0  0  0  0  0  0  0  0  0  0
    3.7537   -0.9546    0.0000 O   0  0  0  0  0  0  0  0  0  0  0  0
  1  2  1  0
  2  3  1  0
  3  4  1  0
  4  5  1  0
  3  6  1  0
  6  7  2  0
  6  8  1  0
  8  9  1  0
  9 10  1  0
  9 11  2  0
M  END
>  <id>  (411) 
247691

>  <casrn>  (411) 
2235-46-3

>  <smiles (First)>  (411) 
CCN(CC)C(=O)CC(C)=O

>  <Molecular weight>  (411) 
157.210205078125

>  <name>  (411) 
N,N-diethyl-3-oxobutyramide

>  <Outcome>  (411) 
1

>  <Molecule (RDKit Mol) (InChI Code)>  (411) 
InChI=1S/C8H15NO2/c1-4-9(5-2)8(11)6-7(3)10/h4-6H2,1-3H3

>  <reference>  (411) 
ToxValDB

>  <molecule_form>  (411) 
not specified

>  <ID>  (411) 


>  <SMILES>  (411) 
CCN(CC)C(=O)CC(C)=O

>  <ROMol>  (411) 
<rdkit.Chem.rdchem.Mol object at 0x0000027F62462C10>

$$$$

     RDKit          2D

  9  9  0  0  0  0  0  0  0  0999 V2000
    0.7774    2.1817    0.0000 C   0  0  0  0  0  0  0  0  0  0  0  0
    0.7774    1.3567    0.0000 C   0  0  0  0  0  0  0  0  0  0  0  0
    1.4919    0.9442    0.0000 C   0  0  0  0  0  0  0  0  0  0  0  0
    1.4919    0.1192    0.0000 C   0  0  0  0  0  0  0  0  0  0  0  0
    0.7774   -0.2933    0.0000 C   0  0  0  0  0  0  0  0  0  0  0  0
    0.0629    0.1192    0.0000 C   0  0  0  0  0  0  0  0  0  0  0  0
   -0.6515   -0.2933    0.0000 C   0  0  0  0  0  0  0  0  0  0  0  0
    0.0629    0.9442    0.0000 C   0  0  0  0  0  0  0  0  0  0  0  0
   -0.6515    1.3567    0.0000 N   0  0  0  0  0  0  0  0  0  0  0  0
  1  2  1  0
  2  3  1  0
  3  4  1  0
  4  5  1  0
  5  6  1  0
  6  7  1  0
  6  8  1  0
  2  8  1  0
  8  9  1  0
M  END
>  <id>  (412) 
1312

>  <casrn>  (412) 
6850-63-1

>  <smiles (First)>  (412) 


>  <Molecular weight>  (412) 
127.22727966308594

>  <name>  (412) 
2,6-dimethylcyclohexanamine

>  <Outcome>  (412) 
1

>  <Molecule (RDKit Mol) (InChI Code)>  (412) 
InChI=1S/C8H17N/c1-6-4-3-5-7(2)8(6)9/h6-8H,3-5,9H2,1-2H3

>  <reference>  (412) 
ECHA

>  <molecule_form>  (412) 
V

>  <ID>  (412) 


>  <SMILES>  (412) 
CC1CCCC(C)C1N

>  <ROMol>  (412) 
<rdkit.Chem.rdchem.Mol object at 0x0000027F624DD900>

$$$$

     RDKit          2D

 11 11  0  0  0  0  0  0  0  0999 V2000
   -0.7145    2.8875    0.0000 O   0  0  0  0  0  0  0  0  0  0  0  0
   -0.0000    2.4750    0.0000 C   0  0  0  0  0  0  0  0  0  0  0  0
    0.7145    2.0625    0.0000 N   0  0  0  0  0  0  0  0  0  0  0  0
    0.7145    1.2375    0.0000 C   0  0  0  0  0  0  0  0  0  0  0  0
    1.4289    0.8250    0.0000 C   0  0  0  0  0  0  0  0  0  0  0  0
    1.4289    0.0000    0.0000 C   0  0  0  0  0  0  0  0  0  0  0  0
    0.7145   -0.4125    0.0000 C   0  0  0  0  0  0  0  0  0  0  0  0
    0.7145   -1.2375    0.0000 Cl  0  0  0  0  0  0  0  0  0  0  0  0
   -0.0000    0.0000    0.0000 C   0  0  0  0  0  0  0  0  0  0  0  0
   -0.7145   -0.4125    0.0000 Cl  0  0  0  0  0  0  0  0  0  0  0  0
   -0.0000    0.8250    0.0000 C   0  0  0  0  0  0  0  0  0  0  0  0
  1  2  2  0
  2  3  2  0
  3  4  1  0
  4  5  2  0
  5  6  1  0
  6  7  2  0
  7  8  1  0
  7  9  1  0
  9 10  1  0
  9 11  2  0
  4 11  1  0
M  END
>  <id>  (413) 
930; 929; 931

>  <casrn>  (413) 
102-36-3

>  <smiles (First)>  (413) 


>  <Molecular weight>  (413) 
188.0108184814453

>  <name>  (413) 
1,2-dichloro-4-isocyanatobenzene

>  <Outcome>  (413) 
1

>  <Molecule (RDKit Mol) (InChI Code)>  (413) 
InChI=1S/C7H3Cl2NO/c8-6-2-1-5(10-4-11)3-7(6)9/h1-3H

>  <reference>  (413) 
ECHA

>  <molecule_form>  (413) 
V; A

>  <ID>  (413) 


>  <SMILES>  (413) 
O=C=Nc1ccc(Cl)c(Cl)c1

>  <ROMol>  (413) 
<rdkit.Chem.rdchem.Mol object at 0x0000027F58905D60>

$$$$

     RDKit          2D

  6  5  0  0  0  0  0  0  0  0999 V2000
    0.8250    1.4289    0.0000 C   0  0  0  0  0  0  0  0  0  0  0  0
    1.2375    0.7145    0.0000 N   0  0  0  0  0  0  0  0  0  0  0  0
    2.0625    0.7145    0.0000 C   0  0  0  0  0  0  0  0  0  0  0  0
    0.8250   -0.0000    0.0000 C   0  0  0  0  0  0  0  0  0  0  0  0
    1.2375   -0.7145    0.0000 S   0  0  0  0  0  0  0  0  0  0  0  0
   -0.0000   -0.0000    0.0000 S   0  0  0  0  0  0  0  0  0  0  0  0
  1  2  1  0
  2  3  1  0
  2  4  1  0
  4  5  2  0
  4  6  1  0
M  END
>  <id>  (414) 
4628

>  <casrn>  (414) 
137-30-4

>  <smiles (First)>  (414) 


>  <Molecular weight>  (414) 
120.21643829345703

>  <name>  (414) 
zinc bis(dimethyldithiocarbamate)

>  <Outcome>  (414) 
1

>  <Molecule (RDKit Mol) (InChI Code)>  (414) 
InChI=1S/C3H7NS2/c1-4(2)3(5)6/h1-2H3,(H,5,6)

>  <reference>  (414) 
ECHA

>  <molecule_form>  (414) 
A

>  <ID>  (414) 


>  <SMILES>  (414) 
CN(C)C(=S)S

>  <ROMol>  (414) 
<rdkit.Chem.rdchem.Mol object at 0x0000027F58408F20>

$$$$

     RDKit          2D

 18 20  0  0  0  0  0  0  0  0999 V2000
   -2.0348    0.2648    0.0000 Cl  0  0  0  0  0  0  0  0  0  0  0  0
   -1.3203    0.6773    0.0000 C   0  0  0  0  0  0  0  0  0  0  0  0
   -1.3203    1.5023    0.0000 C   0  0  0  0  0  0  0  0  0  0  0  0
   -2.0348    1.9148    0.0000 Cl  0  0  0  0  0  0  0  0  0  0  0  0
   -0.6058    1.9148    0.0000 C   0  0  0  0  0  0  0  0  0  0  0  0
   -0.6058    2.7398    0.0000 Cl  0  0  0  0  0  0  0  0  0  0  0  0
    0.1086    1.5023    0.0000 C   0  0  0  0  0  0  0  0  0  0  0  0
    0.1086    0.6773    0.0000 C   0  0  0  0  0  0  0  0  0  0  0  0
    0.8933    0.4224    0.0000 C   0  0  0  0  0  0  0  0  0  0  0  0
    1.1482   -0.3623    0.0000 O   0  0  0  0  0  0  0  0  0  0  0  0
    1.3782    1.0898    0.0000 O   0  0  0  0  0  0  0  0  0  0  0  0
    0.8933    1.7572    0.0000 C   0  0  0  0  0  0  0  0  0  0  0  0
    1.1482    2.5419    0.0000 O   0  0  0  0  0  0  0  0  0  0  0  0
   -0.6058    0.2648    0.0000 C   0  0  0  0  0  0  0  0  0  0  0  0
   -0.6058   -0.5602    0.0000 Cl  0  0  0  0  0  0  0  0  0  0  0  0
   -0.8121    1.0898    0.0000 C   0  0  0  0  0  0  0  0  0  0  0  0
   -1.6024    0.8530    0.0000 Cl  0  0  0  0  0  0  0  0  0  0  0  0
   -1.6024    1.3266    0.0000 Cl  0  0  0  0  0  0  0  0  0  0  0  0
  1  2  1  0
  3  2  2  0
  3  4  1  0
  5  3  1  0
  5  6  1  0
  5  7  1  0
  8  7  1  0
  9  8  1  0
  9 10  2  0
 11  9  1  0
 12 11  1  0
 12 13  2  0
  8 14  1  0
 14 15  1  0
 14 16  1  0
 16 17  1  0
 16 18  1  0
  2 14  1  0
 16  5  1  0
  7 12  1  0
M  END
>  <id>  (415) 
211934

>  <casrn>  (415) 
115-27-5

>  <smiles (First)>  (415) 
ClC1=C(Cl)C2(Cl)C3C(C(=O)OC3=O)C1(Cl)C2(Cl)Cl

>  <Molecular weight>  (415) 
370.828369140625

>  <name>  (415) 
Chlorendic anhydride

>  <Outcome>  (415) 
0

>  <Molecule (RDKit Mol) (InChI Code)>  (415) 
InChI=1S/C9H2Cl6O3/c10-3-4(11)8(13)2-1(5(16)18-6(2)17)7(3,12)9(8,14)15/h1-2H

>  <reference>  (415) 
ToxValDB

>  <molecule_form>  (415) 
not specified

>  <ID>  (415) 


>  <SMILES>  (415) 
O=C1OC(=O)C2C1C1(Cl)C(Cl)=C(Cl)C2(Cl)C1(Cl)Cl

>  <ROMol>  (415) 
<rdkit.Chem.rdchem.Mol object at 0x0000027F6244FD60>

$$$$

     RDKit          2D

 24 26  0  0  0  0  0  0  0  0999 V2000
   -0.7527   -2.9433    0.0000 C   0  0  0  0  0  0  0  0  0  0  0  0
   -0.0382   -2.5308    0.0000 C   0  0  0  0  0  0  0  0  0  0  0  0
    0.6763   -2.9433    0.0000 N   0  0  0  0  0  0  0  0  0  0  0  0
    0.6763   -3.7683    0.0000 C   0  0  0  0  0  0  0  0  0  0  0  0
    1.3907   -4.1808    0.0000 C   0  0  0  0  0  0  0  0  0  0  0  0
    1.3907   -2.5308    0.0000 C   0  0  0  0  0  0  0  0  0  0  0  0
    1.3907   -1.7058    0.0000 C   0  0  0  0  0  0  0  0  0  0  0  0
    2.1052   -1.2933    0.0000 C   0  0  0  0  0  0  0  0  0  0  0  0
    2.8197   -1.7058    0.0000 C   0  0  0  0  0  0  0  0  0  0  0  0
    3.5341   -1.2933    0.0000 N   0  0  0  0  0  0  0  0  0  0  0  0
    4.2486   -1.7058    0.0000 C   0  0  0  0  0  0  0  0  0  0  0  0
    4.9631   -1.2933    0.0000 C   0  0  0  0  0  0  0  0  0  0  0  0
    5.6776   -1.7058    0.0000 C   0  0  0  0  0  0  0  0  0  0  0  0
    5.6776   -2.5308    0.0000 C   0  0  0  0  0  0  0  0  0  0  0  0
    6.3920   -2.9433    0.0000 N   0  0  0  0  0  0  0  0  0  0  0  0
    6.3920   -3.7683    0.0000 C   0  0  0  0  0  0  0  0  0  0  0  0
    7.1065   -4.1808    0.0000 C   0  0  0  0  0  0  0  0  0  0  0  0
    7.1065   -2.5308    0.0000 C   0  0  0  0  0  0  0  0  0  0  0  0
    7.8210   -2.9433    0.0000 C   0  0  0  0  0  0  0  0  0  0  0  0
    4.9631   -2.9433    0.0000 C   0  0  0  0  0  0  0  0  0  0  0  0
    4.2486   -2.5308    0.0000 C   0  0  0  0  0  0  0  0  0  0  0  0
    3.5341   -2.9433    0.0000 O   0  0  0  0  0  0  0  0  0  0  0  0
    2.8197   -2.5308    0.0000 C   0  0  0  0  0  0  0  0  0  0  0  0
    2.1052   -2.9433    0.0000 C   0  0  0  0  0  0  0  0  0  0  0  0
  1  2  1  0
  2  3  1  0
  3  4  1  0
  4  5  1  0
  3  6  1  0
  6  7  2  0
  7  8  1  0
  8  9  2  0
  9 10  1  0
 10 11  2  0
 11 12  1  0
 12 13  2  0
 13 14  1  0
 14 15  1  0
 15 16  1  0
 16 17  1  0
 15 18  1  0
 18 19  1  0
 14 20  2  0
 20 21  1  0
 11 21  1  0
 21 22  2  0
 22 23  1  0
  9 23  1  0
 23 24  2  0
  6 24  1  0
M  CHG  1  22   1
M  END
>  <id>  (416) 
1743

>  <casrn>  (416) 
73570-52-2

>  <smiles (First)>  (416) 


>  <Molecular weight>  (416) 
324.43994140625

>  <name>  (416) 
3,7-bis(diethylamino)-5??????-phenoxazin-5-ylium nitrate

>  <Outcome>  (416) 
1

>  <Molecule (RDKit Mol) (InChI Code)>  (416) 
InChI=1S/C20H26N3O/c1-5-22(6-2)15-9-11-17-19(13-15)24-20-14-16(23(7-3)8-4)10-12-18(20)21-17/h9-14H,5-8H2,1-4H3/q+1

>  <reference>  (416) 
ECHA

>  <molecule_form>  (416) 
A

>  <ID>  (416) 


>  <SMILES>  (416) 
CCN(CC)c1ccc2nc3ccc(N(CC)CC)cc3[o+]c2c1

>  <ROMol>  (416) 
<rdkit.Chem.rdchem.Mol object at 0x0000027F583F46D0>

$$$$

     RDKit          2D

  5  4  0  0  0  0  0  0  0  0999 V2000
    2.1659   -0.7281    0.0000 C   0  0  0  0  0  0  0  0  0  0  0  0
    1.3409   -0.7281    0.0000 C   0  0  0  0  0  0  0  0  0  0  0  0
    0.9284   -1.4425    0.0000 C   0  0  0  0  0  0  0  0  0  0  0  0
    0.9284   -0.0136    0.0000 C   0  0  0  0  0  0  0  0  0  0  0  0
    0.1034   -0.0136    0.0000 O   0  0  0  0  0  0  0  0  0  0  0  0
  1  2  1  0
  2  3  1  0
  2  4  1  0
  4  5  2  0
M  END
>  <id>  (417) 
1662

>  <casrn>  (417) 
78-84-2

>  <smiles (First)>  (417) 


>  <Molecular weight>  (417) 
72.10572052001953

>  <name>  (417) 
2-methylpropanal

>  <Outcome>  (417) 
0

>  <Molecule (RDKit Mol) (InChI Code)>  (417) 
InChI=1S/C4H8O/c1-4(2)3-5/h3-4H,1-2H3

>  <reference>  (417) 
ECHA

>  <molecule_form>  (417) 
V

>  <ID>  (417) 


>  <SMILES>  (417) 
CC(C)C=O

>  <ROMol>  (417) 
<rdkit.Chem.rdchem.Mol object at 0x0000027F6246BEB0>

$$$$

     RDKit          2D

  7  6  0  0  0  0  0  0  0  0999 V2000
    2.4152    0.0436    0.0000 C   0  0  0  0  0  0  0  0  0  0  0  0
    2.0027    0.7581    0.0000 C   0  0  0  0  0  0  0  0  0  0  0  0
    1.1777    0.7581    0.0000 Si  0  0  0  0  0  3  0  0  0  0  0  0
    0.7652    1.4725    0.0000 C   0  0  0  0  0  0  0  0  0  0  0  0
   -0.0598    1.4725    0.0000 C   0  0  0  0  0  0  0  0  0  0  0  0
    0.7652    0.0436    0.0000 C   0  0  0  0  0  0  0  0  0  0  0  0
   -0.0598    0.0436    0.0000 C   0  0  0  0  0  0  0  0  0  0  0  0
  1  2  1  0
  2  3  1  0
  3  4  1  0
  4  5  1  0
  3  6  1  0
  6  7  1  0
M  RAD  1   3   2
M  END
>  <id>  (418) 
4074

>  <casrn>  (418) 
617-86-7

>  <smiles (First)>  (418) 


>  <Molecular weight>  (418) 
115.268798828125

>  <name>  (418) 
triethylsilane

>  <Outcome>  (418) 
0

>  <Molecule (RDKit Mol) (InChI Code)>  (418) 
InChI=1S/C6H15Si/c1-4-7(5-2)6-3/h4-6H2,1-3H3

>  <reference>  (418) 
ECHA

>  <molecule_form>  (418) 
V

>  <ID>  (418) 


>  <SMILES>  (418) 
CC[Si](CC)CC

>  <ROMol>  (418) 
<rdkit.Chem.rdchem.Mol object at 0x0000027F5846E890>

$$$$

     RDKit          2D

  7  6  0  0  0  0  0  0  0  0999 V2000
    0.1105   -1.2375    0.0000 C   0  0  0  0  0  0  0  0  0  0  0  0
    0.8250   -0.8250    0.0000 C   0  0  0  0  0  0  0  0  0  0  0  0
    1.5395   -1.2375    0.0000 Br  0  0  0  0  0  0  0  0  0  0  0  0
    0.8250    0.0000    0.0000 C   0  0  0  0  0  0  0  0  0  0  0  0
    0.8250    0.8250    0.0000 F   0  0  0  0  0  0  0  0  0  0  0  0
    1.6500    0.0000    0.0000 F   0  0  0  0  0  0  0  0  0  0  0  0
   -0.0000    0.0000    0.0000 F   0  0  0  0  0  0  0  0  0  0  0  0
  1  2  2  0
  2  3  1  0
  2  4  1  0
  4  5  1  0
  4  6  1  0
  4  7  1  0
M  END
>  <id>  (419) 
1419

>  <casrn>  (419) 
1514-82-5

>  <smiles (First)>  (419) 


>  <Molecular weight>  (419) 
174.9471893310547

>  <name>  (419) 
2-bromo-3,3,3-trifluoroprop-1-ene

>  <Outcome>  (419) 
0

>  <Molecule (RDKit Mol) (InChI Code)>  (419) 
InChI=1S/C3H2BrF3/c1-2(4)3(5,6)7/h1H2

>  <reference>  (419) 
ECHA

>  <molecule_form>  (419) 
V

>  <ID>  (419) 


>  <SMILES>  (419) 
C=C(Br)C(F)(F)F

>  <ROMol>  (419) 
<rdkit.Chem.rdchem.Mol object at 0x0000027F5846E6D0>

$$$$

     RDKit          2D

  4  3  0  0  0  0  0  0  0  0999 V2000
    2.0625   -0.7145    0.0000 C   0  0  0  0  0  0  0  0  0  0  0  0
    1.2375   -0.7145    0.0000 S   0  0  0  0  0  0  0  0  0  0  0  0
    0.8250   -0.0000    0.0000 S   0  0  0  0  0  0  0  0  0  0  0  0
    0.0000   -0.0000    0.0000 C   0  0  0  0  0  0  0  0  0  0  0  0
  1  2  1  0
  2  3  1  0
  3  4  1  0
M  END
>  <id>  (420) 
224

>  <casrn>  (420) 
624-92-0

>  <smiles (First)>  (420) 


>  <Molecular weight>  (420) 
94.19903564453125

>  <name>  (420) 
(methyldisulfanyl)methane

>  <Outcome>  (420) 
1

>  <Molecule (RDKit Mol) (InChI Code)>  (420) 
InChI=1S/C2H6S2/c1-3-4-2/h1-2H3

>  <reference>  (420) 
ECHA

>  <molecule_form>  (420) 
V

>  <ID>  (420) 


>  <SMILES>  (420) 
CSSC

>  <ROMol>  (420) 
<rdkit.Chem.rdchem.Mol object at 0x0000027F5C144DD0>

$$$$

     RDKit          2D

  6  5  0  0  0  0  0  0  0  0999 V2000
   -0.0930    1.0340    0.0000 Cl  0  0  0  0  0  0  0  0  0  0  0  0
    0.3195    0.3195    0.0000 C   0  0  0  0  0  0  0  0  0  0  0  0
    1.1445    0.3195    0.0000 Cl  0  0  0  0  0  0  0  0  0  0  0  0
   -0.0930   -0.3950    0.0000 C   0  0  0  0  0  0  0  0  0  0  0  0
    0.3195   -1.1094    0.0000 Cl  0  0  0  0  0  0  0  0  0  0  0  0
   -0.9180   -0.3950    0.0000 Cl  0  0  0  0  0  0  0  0  0  0  0  0
  1  2  1  0
  2  3  1  0
  2  4  1  0
  4  5  1  0
  4  6  1  0
M  END
>  <id>  (421) 
798608

>  <casrn>  (421) 
79-34-5

>  <smiles (First)>  (421) 
ClC(Cl)C(Cl)Cl

>  <Molecular weight>  (421) 
167.84927368164062

>  <name>  (421) 
1,1,2,2-Tetrachloroethane

>  <Outcome>  (421) 
1

>  <Molecule (RDKit Mol) (InChI Code)>  (421) 
InChI=1S/C2H2Cl4/c3-1(4)2(5)6/h1-2H

>  <reference>  (421) 
ToxValDB

>  <molecule_form>  (421) 
not specified

>  <ID>  (421) 


>  <SMILES>  (421) 
ClC(Cl)C(Cl)Cl

>  <ROMol>  (421) 
<rdkit.Chem.rdchem.Mol object at 0x0000027F58444580>

$$$$

     RDKit          2D

 10  9  0  0  0  0  0  0  0  0999 V2000
    5.8559    3.3949    0.0000 C   0  0  0  0  0  0  0  0  0  0  0  0
    5.8559    2.5699    0.0000 N   0  0  0  0  0  0  0  0  0  0  0  0
    5.1414    2.1574    0.0000 C   0  0  0  0  0  0  0  0  0  0  0  0
    4.4270    2.5699    0.0000 C   0  0  0  0  0  0  0  0  0  0  0  0
    3.7125    2.1574    0.0000 C   0  0  0  0  0  0  0  0  0  0  0  0
    2.9980    2.5699    0.0000 N   0  0  0  0  0  0  0  0  0  0  0  0
    6.5704    2.1574    0.0000 C   0  0  0  0  0  0  0  0  0  0  0  0
    7.2849    2.5699    0.0000 C   0  0  0  0  0  0  0  0  0  0  0  0
    7.9993    2.1574    0.0000 C   0  0  0  0  0  0  0  0  0  0  0  0
    8.7138    2.5699    0.0000 N   0  0  0  0  0  0  0  0  0  0  0  0
  1  2  1  0
  2  3  1  0
  3  4  1  0
  4  5  1  0
  5  6  1  0
  2  7  1  0
  7  8  1  0
  8  9  1  0
  9 10  1  0
M  END
>  <id>  (422) 
2654

>  <casrn>  (422) 
105-83-9

>  <smiles (First)>  (422) 


>  <Molecular weight>  (422) 
145.24586486816406

>  <name>  (422) 
bis(3-aminopropyl)(methyl)amine

>  <Outcome>  (422) 
1

>  <Molecule (RDKit Mol) (InChI Code)>  (422) 
InChI=1S/C7H19N3/c1-10(6-2-4-8)7-3-5-9/h2-9H2,1H3

>  <reference>  (422) 
ECHA

>  <molecule_form>  (422) 
A

>  <ID>  (422) 


>  <SMILES>  (422) 
CN(CCCN)CCCN

>  <ROMol>  (422) 
<rdkit.Chem.rdchem.Mol object at 0x0000027F624DDA50>

$$$$

     RDKit          2D

  9  8  0  0  0  0  0  0  0  0999 V2000
    1.0461    3.0803    0.0000 C   0  0  0  0  0  0  0  0  0  0  0  0
    1.7605    2.6678    0.0000 C   0  0  0  0  0  0  0  0  0  0  0  0
    1.7605    1.8428    0.0000 C   0  0  0  0  0  0  0  0  0  0  0  0
    2.4750    1.4303    0.0000 C   0  0  0  0  0  0  0  0  0  0  0  0
    3.1895    1.8428    0.0000 C   0  0  0  0  0  0  0  0  0  0  0  0
    3.9040    1.4303    0.0000 C   0  0  0  0  0  0  0  0  0  0  0  0
    4.6184    1.8428    0.0000 C   0  0  0  0  0  0  0  0  0  0  0  0
    5.3329    1.4303    0.0000 C   0  0  0  0  0  0  0  0  0  0  0  0
    6.0474    1.8428    0.0000 C   0  0  0  0  0  0  0  0  0  0  0  0
  2  1  1  0
  2  3  2  3
  3  4  1  0
  4  5  1  0
  5  6  1  0
  6  7  1  0
  7  8  1  0
  8  9  1  0
M  END
>  <id>  (423) 
3527; 3525; 3528; 3530; 3521; 3520; 3518; 3529; 3522; 3526; 3523; 3524; 3519

>  <casrn>  (423) 
27215-95-8

>  <smiles (First)>  (423) 


>  <Molecular weight>  (423) 
126.23922729492189

>  <name>  (423) 
non-1-ene

>  <Outcome>  (423) 
0

>  <Molecule (RDKit Mol) (InChI Code)>  (423) 
InChI=1S/C9H18/c1-3-5-7-9-8-6-4-2/h3,5H,4,6-9H2,1-2H3

>  <reference>  (423) 
ECHA

>  <molecule_form>  (423) 
V

>  <ID>  (423) 


>  <SMILES>  (423) 
CC=CCCCCCC

>  <ROMol>  (423) 
<rdkit.Chem.rdchem.Mol object at 0x0000027F584286D0>

$$$$

     RDKit          2D

 37 36  0  0  0  0  0  0  0  0999 V2000
   -5.3977    0.1390    0.0000 C   0  0  0  0  0  0  0  0  0  0  0  0
   -4.5727    0.1390    0.0000 C   0  0  0  0  0  0  0  0  0  0  0  0
   -4.1602   -0.5755    0.0000 C   0  0  0  0  0  0  0  0  0  0  0  0
   -3.3352   -0.5755    0.0000 C   0  0  0  0  0  0  0  0  0  0  0  0
   -2.9227   -1.2899    0.0000 C   0  0  0  0  0  0  0  0  0  0  0  0
   -2.0977   -1.2899    0.0000 C   0  0  0  0  0  0  0  0  0  0  0  0
   -1.6852   -2.0044    0.0000 C   0  0  0  0  0  0  0  0  0  0  0  0
   -0.8602   -2.0044    0.0000 O   0  0  0  0  0  0  0  0  0  0  0  0
   -0.4477   -2.7189    0.0000 C   0  0  0  0  0  0  0  0  0  0  0  0
    0.3773   -2.7189    0.0000 C   0  0  0  0  0  0  0  0  0  0  0  0
    1.2023   -2.7189    0.0000 C   0  0  0  0  0  0  0  0  0  0  0  0
    1.6148   -3.4334    0.0000 O   0  0  0  0  0  0  0  0  0  0  0  0
    2.4398   -3.4334    0.0000 C   0  0  0  0  0  0  0  0  0  0  0  0
    2.8523   -4.1478    0.0000 C   0  0  0  0  0  0  0  0  0  0  0  0
    3.6773   -4.1478    0.0000 C   0  0  0  0  0  0  0  0  0  0  0  0
    4.0898   -4.8623    0.0000 C   0  0  0  0  0  0  0  0  0  0  0  0
    4.9148   -4.8623    0.0000 C   0  0  0  0  0  0  0  0  0  0  0  0
    5.3273   -5.5768    0.0000 C   0  0  0  0  0  0  0  0  0  0  0  0
    6.1523   -5.5768    0.0000 C   0  0  0  0  0  0  0  0  0  0  0  0
    0.3773   -3.5439    0.0000 C   0  0  0  0  0  0  0  0  0  0  0  0
    1.0918   -3.9564    0.0000 O   0  0  0  0  0  0  0  0  0  0  0  0
    1.0918   -4.7814    0.0000 C   0  0  0  0  0  0  0  0  0  0  0  0
    1.8063   -5.1939    0.0000 C   0  0  0  0  0  0  0  0  0  0  0  0
    1.8063   -6.0189    0.0000 C   0  0  0  0  0  0  0  0  0  0  0  0
    2.5207   -6.4314    0.0000 C   0  0  0  0  0  0  0  0  0  0  0  0
    2.5207   -7.2564    0.0000 C   0  0  0  0  0  0  0  0  0  0  0  0
    3.2352   -7.6689    0.0000 C   0  0  0  0  0  0  0  0  0  0  0  0
    3.2352   -8.4939    0.0000 C   0  0  0  0  0  0  0  0  0  0  0  0
    0.3773   -1.8939    0.0000 C   0  0  0  0  0  0  0  0  0  0  0  0
    1.0918   -1.4814    0.0000 O   0  0  0  0  0  0  0  0  0  0  0  0
    1.8063   -1.8939    0.0000 C   0  0  0  0  0  0  0  0  0  0  0  0
    2.5207   -1.4814    0.0000 C   0  0  0  0  0  0  0  0  0  0  0  0
    3.2352   -1.8939    0.0000 C   0  0  0  0  0  0  0  0  0  0  0  0
    3.9497   -1.4814    0.0000 C   0  0  0  0  0  0  0  0  0  0  0  0
    4.6641   -1.8939    0.0000 C   0  0  0  0  0  0  0  0  0  0  0  0
    5.3786   -1.4814    0.0000 C   0  0  0  0  0  0  0  0  0  0  0  0
    6.0931   -1.8939    0.0000 C   0  0  0  0  0  0  0  0  0  0  0  0
  1  2  1  0
  2  3  1  0
  3  4  1  0
  4  5  1  0
  5  6  1  0
  6  7  1  0
  7  8  1  0
  8  9  1  0
  9 10  1  0
 10 11  1  0
 11 12  1  0
 12 13  1  0
 13 14  1  0
 14 15  1  0
 15 16  1  0
 16 17  1  0
 17 18  1  0
 18 19  1  0
 10 20  1  0
 20 21  1  0
 21 22  1  0
 22 23  1  0
 23 24  1  0
 24 25  1  0
 25 26  1  0
 26 27  1  0
 27 28  1  0
 10 29  1  0
 29 30  1  0
 30 31  1  0
 31 32  1  0
 32 33  1  0
 33 34  1  0
 34 35  1  0
 35 36  1  0
 36 37  1  0
M  END
>  <id>  (424) 
2133

>  <casrn>  (424) 
67762-53-2

>  <smiles (First)>  (424) 


>  <Molecular weight>  (424) 
528.890625

>  <name>  (424) 
Fatty acids, C5-9, tetraesters with pentaerythritol

>  <Outcome>  (424) 
0

>  <Molecule (RDKit Mol) (InChI Code)>  (424) 
InChI=1S/C33H68O4/c1-5-9-13-17-21-25-34-29-33(30-35-26-22-18-14-10-6-2,31-36-27-23-19-15-11-7-3)32-37-28-24-20-16-12-8-4/h5-32H2,1-4H3

>  <reference>  (424) 
ECHA

>  <molecule_form>  (424) 
A

>  <ID>  (424) 


>  <SMILES>  (424) 
CCCCCCCOCC(COCCCCCCC)(COCCCCCCC)COCCCCCCC

>  <ROMol>  (424) 
<rdkit.Chem.rdchem.Mol object at 0x0000027F583F4F90>

$$$$

     RDKit          2D

  7  7  0  0  0  0  0  0  0  0999 V2000
    1.4749   -0.3613    0.0000 C   0  0  0  0  0  0  0  0  0  0  0  0
    0.9900    0.3061    0.0000 N   0  0  0  0  0  0  0  0  0  0  0  0
    0.1650    0.3061    0.0000 C   0  0  0  0  0  0  0  0  0  0  0  0
   -0.0900    1.0907    0.0000 C   0  0  0  0  0  0  0  0  0  0  0  0
    0.5775    1.5756    0.0000 C   0  0  0  0  0  0  0  0  0  0  0  0
    1.2449    1.0907    0.0000 C   0  0  0  0  0  0  0  0  0  0  0  0
    2.0295    1.3457    0.0000 O   0  0  0  0  0  0  0  0  0  0  0  0
  1  2  1  0
  2  3  1  0
  3  4  1  0
  4  5  1  0
  5  6  1  0
  2  6  1  0
  6  7  2  0
M  END
>  <id>  (425) 
1203

>  <casrn>  (425) 
872-50-4

>  <smiles (First)>  (425) 


>  <Molecular weight>  (425) 
99.13105773925781

>  <name>  (425) 
1-methylpyrrolidin-2-one

>  <Outcome>  (425) 
0

>  <Molecule (RDKit Mol) (InChI Code)>  (425) 
InChI=1S/C5H9NO/c1-6-4-2-3-5(6)7/h2-4H2,1H3

>  <reference>  (425) 
ECHA

>  <molecule_form>  (425) 
A

>  <ID>  (425) 


>  <SMILES>  (425) 
CN1CCCC1=O

>  <ROMol>  (425) 
<rdkit.Chem.rdchem.Mol object at 0x0000027F5C1499E0>

$$$$

     RDKit          2D

  4  3  0  0  0  0  0  0  0  0999 V2000
    2.0625   -0.7145    0.0000 O   0  0  0  0  0  0  0  0  0  0  0  0
    1.2375   -0.7145    0.0000 C   0  0  0  0  0  0  0  0  0  0  0  0
    0.8250   -0.0000    0.0000 C   0  0  0  0  0  0  0  0  0  0  0  0
    0.0000   -0.0000    0.0000 S   0  0  0  0  0  0  0  0  0  0  0  0
  1  2  1  0
  2  3  1  0
  3  4  1  0
M  END
>  <id>  (426) 
1702; 3851

>  <casrn>  (426) 
60-24-2

>  <smiles (First)>  (426) 


>  <Molecular weight>  (426) 
77.62947082519531

>  <name>  (426) 
2-sulfanylethan-1-ol

>  <Outcome>  (426) 
1

>  <Molecule (RDKit Mol) (InChI Code)>  (426) 
InChI=1S/C2H6OS/c3-1-2-4/h3-4H,1-2H2

>  <reference>  (426) 
ECHA

>  <molecule_form>  (426) 
V

>  <ID>  (426) 


>  <SMILES>  (426) 
OCCS

>  <ROMol>  (426) 
<rdkit.Chem.rdchem.Mol object at 0x0000027F62463970>

$$$$

     RDKit          2D

  5  4  0  0  0  0  0  0  0  0999 V2000
    0.8814    1.5057    0.0000 C   0  0  0  0  0  0  0  0  0  0  0  0
    1.2939    0.7913    0.0000 C   0  0  0  0  0  0  0  0  0  0  0  0
    0.8814    0.0768    0.0000 C   0  0  0  0  0  0  0  0  0  0  0  0
    1.2939   -0.6377    0.0000 C   0  0  0  0  0  0  0  0  0  0  0  0
    0.0564    0.0768    0.0000 Cl  0  0  0  0  0  0  0  0  0  0  0  0
  1  2  1  0
  2  3  1  0
  3  4  1  0
  3  5  1  0
M  END
>  <id>  (427) 
1443

>  <casrn>  (427) 
78-86-4

>  <smiles (First)>  (427) 


>  <Molecular weight>  (427) 
92.5672607421875

>  <name>  (427) 
2-chlorobutane

>  <Outcome>  (427) 
0

>  <Molecule (RDKit Mol) (InChI Code)>  (427) 
InChI=1S/C4H9Cl/c1-3-4(2)5/h4H,3H2,1-2H3

>  <reference>  (427) 
ECHA

>  <molecule_form>  (427) 
V

>  <ID>  (427) 


>  <SMILES>  (427) 
CCC(C)Cl

>  <ROMol>  (427) 
<rdkit.Chem.rdchem.Mol object at 0x0000027F5842FAC0>

$$$$

     RDKit          2D

 35 38  0  0  0  0  0  0  0  0999 V2000
    3.4827   -3.2380    0.0000 O   0  0  0  0  0  0  0  0  0  0  0  0
    3.6056   -4.0538    0.0000 C   0  0  0  0  0  0  0  0  0  0  0  0
    4.3940   -4.2969    0.0000 C   0  0  0  0  0  0  0  0  0  0  0  0
    4.6954   -5.0649    0.0000 C   0  0  0  0  0  0  0  0  0  0  0  0
    4.2829   -5.7794    0.0000 C   0  0  0  0  0  0  0  0  0  0  0  0
    3.4671   -5.9023    0.0000 C   0  0  0  0  0  0  0  0  0  0  0  0
    2.8623   -5.3412    0.0000 C   0  0  0  0  0  0  0  0  0  0  0  0
    2.9240   -4.5185    0.0000 N   0  0  0  0  0  0  0  0  0  0  0  0
    2.2095   -4.1060    0.0000 C   0  0  0  0  0  0  0  0  0  0  0  0
    2.2095   -3.2810    0.0000 O   0  0  0  0  0  0  0  0  0  0  0  0
    1.4950   -4.5185    0.0000 N   0  0  0  0  0  0  0  0  0  0  0  0
    1.4950   -5.3435    0.0000 C   0  0  0  0  0  0  0  0  0  0  0  0
    2.2095   -5.7560    0.0000 C   0  0  0  0  0  0  0  0  0  0  0  0
    2.2095   -6.5810    0.0000 C   0  0  0  0  0  0  0  0  0  0  0  0
    1.4950   -6.9935    0.0000 C   0  0  0  0  0  0  0  0  0  0  0  0
    1.4950   -7.8185    0.0000 C   0  0  0  0  0  0  0  0  0  0  0  0
    0.7806   -8.2310    0.0000 C   0  0  0  0  0  0  0  0  0  0  0  0
    0.7806   -9.0560    0.0000 C   0  0  0  0  0  0  0  0  0  0  0  0
    0.0661   -9.4685    0.0000 C   0  0  0  0  0  0  0  0  0  0  0  0
   -0.6484   -9.0560    0.0000 C   0  0  0  0  0  0  0  0  0  0  0  0
   -1.3628   -9.4685    0.0000 N   0  0  0  0  0  0  0  0  0  0  0  0
   -1.3628  -10.2935    0.0000 C   0  0  0  0  0  0  0  0  0  0  0  0
   -0.6484  -10.7060    0.0000 O   0  0  0  0  0  0  0  0  0  0  0  0
   -2.0773  -10.7060    0.0000 N   0  0  0  0  0  0  0  0  0  0  0  0
   -2.0157  -11.5287    0.0000 C   0  0  0  0  0  0  0  0  0  0  0  0
   -2.6204  -12.0898    0.0000 C   0  0  0  0  0  0  0  0  0  0  0  0
   -3.4362  -11.9669    0.0000 C   0  0  0  0  0  0  0  0  0  0  0  0
   -3.8487  -11.2524    0.0000 C   0  0  0  0  0  0  0  0  0  0  0  0
   -3.5473  -10.4844    0.0000 C   0  0  0  0  0  0  0  0  0  0  0  0
   -2.7590  -10.2413    0.0000 C   0  0  0  0  0  0  0  0  0  0  0  0
   -2.6360   -9.4255    0.0000 O   0  0  0  0  0  0  0  0  0  0  0  0
   -0.6484   -8.2310    0.0000 C   0  0  0  0  0  0  0  0  0  0  0  0
    0.0661   -7.8185    0.0000 C   0  0  0  0  0  0  0  0  0  0  0  0
    0.7806   -6.5810    0.0000 C   0  0  0  0  0  0  0  0  0  0  0  0
    0.7806   -5.7560    0.0000 C   0  0  0  0  0  0  0  0  0  0  0  0
  1  2  2  0
  2  3  1  0
  3  4  1  0
  4  5  1  0
  5  6  1  0
  6  7  1  0
  7  8  1  0
  2  8  1  0
  8  9  1  0
  9 10  2  0
  9 11  1  0
 11 12  1  0
 12 13  2  0
 13 14  1  0
 14 15  2  0
 15 16  1  0
 16 17  1  0
 17 18  2  0
 18 19  1  0
 19 20  2  0
 20 21  1  0
 21 22  1  0
 22 23  2  0
 22 24  1  0
 24 25  1  0
 25 26  1  0
 26 27  1  0
 27 28  1  0
 28 29  1  0
 29 30  1  0
 24 30  1  0
 30 31  2  0
 20 32  1  0
 32 33  2  0
 17 33  1  0
 15 34  1  0
 34 35  2  0
 12 35  1  0
M  END
>  <id>  (428) 
1687

>  <casrn>  (428) 
54112-23-1

>  <smiles (First)>  (428) 


>  <Molecular weight>  (428) 
476.5673828125

>  <name>  (428) 
2-oxo-N-[4-({4-[(2-oxoazepane-1-carbonyl)amino]phenyl}methyl)phenyl]azepane-1-carboxamide

>  <Outcome>  (428) 
0

>  <Molecule (RDKit Mol) (InChI Code)>  (428) 
InChI=1S/C27H32N4O4/c32-24-7-3-1-5-17-30(24)26(34)28-22-13-9-20(10-14-22)19-21-11-15-23(16-12-21)29-27(35)31-18-6-2-4-8-25(31)33/h9-16H,1-8,17-19H2,(H,28,34)(H,29,35)

>  <reference>  (428) 
ECHA

>  <molecule_form>  (428) 
A

>  <ID>  (428) 


>  <SMILES>  (428) 
O=C1CCCCCN1C(=O)Nc1ccc(Cc2ccc(NC(=O)N3CCCCCC3=O)cc2)cc1

>  <ROMol>  (428) 
<rdkit.Chem.rdchem.Mol object at 0x0000027F5842F5F0>

$$$$

     RDKit          2D

 10  9  0  0  0  0  0  0  0  0999 V2000
    1.5395   -1.2375    0.0000 C   0  0  0  0  0  0  0  0  0  0  0  0
    0.8250   -0.8250    0.0000 C   0  0  0  0  0  0  0  0  0  0  0  0
    0.1105   -1.2375    0.0000 C   0  0  0  0  0  0  0  0  0  0  0  0
   -0.6039   -1.6500    0.0000 F   0  0  0  0  0  0  0  0  0  0  0  0
    0.5230   -1.9520    0.0000 F   0  0  0  0  0  0  0  0  0  0  0  0
   -0.3020   -0.5230    0.0000 F   0  0  0  0  0  0  0  0  0  0  0  0
    0.8250    0.0000    0.0000 C   0  0  0  0  0  0  0  0  0  0  0  0
    0.8250    0.8250    0.0000 F   0  0  0  0  0  0  0  0  0  0  0  0
    1.6500    0.0000    0.0000 F   0  0  0  0  0  0  0  0  0  0  0  0
    0.0000    0.0000    0.0000 F   0  0  0  0  0  0  0  0  0  0  0  0
  1  2  2  0
  2  3  1  0
  3  4  1  0
  3  5  1  0
  3  6  1  0
  2  7  1  0
  7  8  1  0
  7  9  1  0
  7 10  1  0
M  END
>  <id>  (429) 
1715

>  <casrn>  (429) 
382-10-5

>  <smiles (First)>  (429) 


>  <Molecular weight>  (429) 
164.04910278320312

>  <name>  (429) 
3,3,3-trifluoro-2-(trifluoromethyl)prop-1-ene

>  <Outcome>  (429) 
1

>  <Molecule (RDKit Mol) (InChI Code)>  (429) 
InChI=1S/C4H2F6/c1-2(3(5,6)7)4(8,9)10/h1H2

>  <reference>  (429) 
ECHA

>  <molecule_form>  (429) 
G

>  <ID>  (429) 


>  <SMILES>  (429) 
C=C(C(F)(F)F)C(F)(F)F

>  <ROMol>  (429) 
<rdkit.Chem.rdchem.Mol object at 0x0000027F5846EDD0>

$$$$

     RDKit          2D

  9  8  0  0  0  0  0  0  0  0999 V2000
    1.0461    1.4289    0.0000 C   0  0  0  0  0  0  0  0  0  0  0  0
    1.7605    1.8414    0.0000 C   0  0  0  0  0  0  0  0  0  0  0  0
    2.4750    1.4289    0.0000 C   0  0  0  0  0  0  0  0  0  0  0  0
    2.4750    0.6039    0.0000 O   0  0  0  0  0  0  0  0  0  0  0  0
    3.1895    1.8414    0.0000 O   0  0  0  0  0  0  0  0  0  0  0  0
    3.9039    1.4289    0.0000 C   0  0  0  0  0  0  0  0  0  0  0  0
    4.6184    1.8414    0.0000 C   0  0  0  0  0  0  0  0  0  0  0  0
    5.3329    1.4289    0.0000 O   0  0  0  0  0  0  0  0  0  0  0  0
    6.0474    1.8414    0.0000 C   0  0  0  0  0  0  0  0  0  0  0  0
  1  2  2  0
  2  3  1  0
  3  4  2  0
  3  5  1  0
  5  6  1  0
  6  7  1  0
  7  8  1  0
  8  9  1  0
M  END
>  <id>  (430) 
1502

>  <casrn>  (430) 
3121-61-7

>  <smiles (First)>  (430) 


>  <Molecular weight>  (430) 
130.1417999267578

>  <name>  (430) 
2-methoxyethyl prop-2-enoate

>  <Outcome>  (430) 
1

>  <Molecule (RDKit Mol) (InChI Code)>  (430) 
InChI=1S/C6H10O3/c1-3-6(7)9-5-4-8-2/h3H,1,4-5H2,2H3

>  <reference>  (430) 
ECHA

>  <molecule_form>  (430) 
V

>  <ID>  (430) 


>  <SMILES>  (430) 
C=CC(=O)OCCOC

>  <ROMol>  (430) 
<rdkit.Chem.rdchem.Mol object at 0x0000027F62463740>

$$$$

     RDKit          2D

  5  4  0  0  0  0  0  0  0  0999 V2000
    0.6712    1.0143    0.0000 C   0  0  0  0  0  0  0  0  0  0  0  0
    1.0837    0.2998    0.0000 C   0  0  0  0  0  0  0  0  0  0  0  0
    0.6712   -0.4146    0.0000 C   0  0  0  0  0  0  0  0  0  0  0  0
    1.0837   -1.1291    0.0000 O   0  0  0  0  0  0  0  0  0  0  0  0
   -0.1538   -0.4146    0.0000 O   0  0  0  0  0  0  0  0  0  0  0  0
  1  2  1  0
  2  3  1  0
  3  4  1  0
  3  5  2  0
M  END
>  <id>  (431) 
326907

>  <casrn>  (431) 
79-09-4

>  <smiles (First)>  (431) 
CCC(O)=O

>  <Molecular weight>  (431) 
74.07854461669922

>  <name>  (431) 
Propionic acid

>  <Outcome>  (431) 
0

>  <Molecule (RDKit Mol) (InChI Code)>  (431) 
InChI=1S/C3H6O2/c1-2-3(4)5/h2H2,1H3,(H,4,5)

>  <reference>  (431) 
ToxValDB

>  <molecule_form>  (431) 
not specified

>  <ID>  (431) 


>  <SMILES>  (431) 
CCC(=O)O

>  <ROMol>  (431) 
<rdkit.Chem.rdchem.Mol object at 0x0000027F624742E0>

$$$$

     RDKit          2D

 34 40  0  0  0  0  0  0  0  0999 V2000
    7.2404   -6.5643    0.0000 O   0  0  0  0  0  0  0  0  0  0  0  0
    7.5104   -5.7848    0.0000 C   0  0  0  0  0  0  0  0  0  0  0  0
    6.9703   -5.1611    0.0000 C   0  0  0  0  0  0  0  0  0  0  0  0
    6.1602   -5.3170    0.0000 C   0  0  0  0  0  0  0  0  0  0  0  0
    5.6201   -4.6934    0.0000 C   0  0  0  0  0  0  0  0  0  0  0  0
    5.8902   -3.9139    0.0000 C   0  0  0  0  0  0  0  0  0  0  0  0
    6.7003   -3.7579    0.0000 C   0  0  0  0  0  0  0  0  0  0  0  0
    7.2404   -4.3816    0.0000 C   0  0  0  0  0  0  0  0  0  0  0  0
    8.0505   -4.2257    0.0000 C   0  0  0  0  0  0  0  0  0  0  0  0
    8.3206   -3.4461    0.0000 O   0  0  0  0  0  0  0  0  0  0  0  0
    8.5906   -4.8493    0.0000 C   0  0  0  0  0  0  0  0  0  0  0  0
    8.3206   -5.6289    0.0000 C   0  0  0  0  0  0  0  0  0  0  0  0
    8.8606   -6.2525    0.0000 C   0  0  0  0  0  0  0  0  0  0  0  0
    9.6708   -6.0966    0.0000 C   0  0  0  0  0  0  0  0  0  0  0  0
    9.9408   -5.3170    0.0000 C   0  0  0  0  0  0  0  0  0  0  0  0
   10.7510   -5.1611    0.0000 N   0  0  0  0  0  0  0  0  0  0  0  0
   11.0210   -4.3816    0.0000 C   0  0  0  0  0  0  0  0  0  0  0  0
   10.4809   -3.7579    0.0000 C   0  0  0  0  0  0  0  0  0  0  0  0
   10.7510   -2.9784    0.0000 C   0  0  0  0  0  0  0  0  0  0  0  0
   11.5611   -2.8225    0.0000 C   0  0  0  0  0  0  0  0  0  0  0  0
   12.1012   -3.4461    0.0000 C   0  0  0  0  0  0  0  0  0  0  0  0
   12.9113   -3.2902    0.0000 C   0  0  0  0  0  0  0  0  0  0  0  0
   13.1814   -2.5107    0.0000 O   0  0  0  0  0  0  0  0  0  0  0  0
   13.4514   -3.9139    0.0000 C   0  0  0  0  0  0  0  0  0  0  0  0
   14.2615   -3.7579    0.0000 C   0  0  0  0  0  0  0  0  0  0  0  0
   14.8016   -4.3816    0.0000 C   0  0  0  0  0  0  0  0  0  0  0  0
   14.5316   -5.1611    0.0000 C   0  0  0  0  0  0  0  0  0  0  0  0
   13.7215   -5.3170    0.0000 C   0  0  0  0  0  0  0  0  0  0  0  0
   13.1814   -4.6934    0.0000 C   0  0  0  0  0  0  0  0  0  0  0  0
   12.3712   -4.8493    0.0000 C   0  0  0  0  0  0  0  0  0  0  0  0
   12.1012   -5.6289    0.0000 O   0  0  0  0  0  0  0  0  0  0  0  0
   11.8311   -4.2257    0.0000 C   0  0  0  0  0  0  0  0  0  0  0  0
    9.6708   -3.9139    0.0000 N   0  0  0  0  0  0  0  0  0  0  0  0
    9.4007   -4.6934    0.0000 C   0  0  0  0  0  0  0  0  0  0  0  0
  1  2  2  0
  2  3  1  0
  3  4  2  0
  4  5  1  0
  5  6  2  0
  6  7  1  0
  7  8  2  0
  3  8  1  0
  8  9  1  0
  9 10  2  0
  9 11  1  0
 11 12  2  0
  2 12  1  0
 12 13  1  0
 13 14  2  0
 14 15  1  0
 15 16  1  0
 16 17  1  0
 17 18  2  0
 18 19  1  0
 19 20  2  0
 20 21  1  0
 21 22  1  0
 22 23  2  0
 22 24  1  0
 24 25  2  0
 25 26  1  0
 26 27  2  0
 27 28  1  0
 28 29  2  0
 24 29  1  0
 29 30  1  0
 30 31  2  0
 30 32  1  0
 21 32  2  0
 17 32  1  0
 18 33  1  0
 33 34  1  0
 15 34  2  0
 11 34  1  0
M  END
>  <id>  (432) 
1232

>  <casrn>  (432) 
81-77-6

>  <smiles (First)>  (432) 


>  <Molecular weight>  (432) 
442.4217529296875

>  <name>  (432) 
2,17-diazaheptacyclo[16.12.0.0??,??????.0????,????.0????,????.0??????,??????.0????,??????]triaconta-1(30),3,6(11),7,9,13,15,18,21(26),22,24,28-dodecaene-5,12,20,27-tetrone

>  <Outcome>  (432) 
0

>  <Molecule (RDKit Mol) (InChI Code)>  (432) 
InChI=1S/C28H14N2O4/c31-25-13-5-1-3-7-15(13)27(33)21-17(25)9-11-19-23(21)29-20-12-10-18-22(24(20)30-19)28(34)16-8-4-2-6-14(16)26(18)32/h1-12,29-30H

>  <reference>  (432) 
ECHA

>  <molecule_form>  (432) 
A

>  <ID>  (432) 


>  <SMILES>  (432) 
O=c1c2ccccc2c(=O)c2c1ccc1[nH]c3c(ccc4c(=O)c5ccccc5c(=O)c43)[nH]c12

>  <ROMol>  (432) 
<rdkit.Chem.rdchem.Mol object at 0x0000027F5C149580>

$$$$

     RDKit          2D

 56 55  0  0  0  0  0  0  0  0999 V2000
   26.5174   16.1811    0.0000 C   0  0  0  0  0  0  0  0  0  0  0  0
   27.2319   15.7686    0.0000 C   0  0  0  0  0  0  0  0  0  0  0  0
   27.9463   16.1811    0.0000 C   0  0  0  0  0  0  0  0  0  0  0  0
   28.6608   15.7686    0.0000 C   0  0  0  0  0  0  0  0  0  0  0  0
   29.3753   16.1811    0.0000 C   0  0  0  0  0  0  0  0  0  0  0  0
   30.0898   15.7686    0.0000 C   0  0  0  0  0  0  0  0  0  0  0  0
   30.8042   16.1811    0.0000 C   0  0  0  0  0  0  0  0  0  0  0  0
   31.5187   15.7686    0.0000 C   0  0  0  0  0  0  0  0  0  0  0  0
   32.2332   16.1811    0.0000 C   0  0  0  0  0  0  0  0  0  0  0  0
   32.9476   15.7686    0.0000 C   0  0  0  0  0  0  0  0  0  0  0  0
   33.6621   16.1811    0.0000 C   0  0  0  0  0  0  0  0  0  0  0  0
   34.3766   15.7686    0.0000 C   0  0  0  0  0  0  0  0  0  0  0  0
   35.0910   16.1811    0.0000 C   0  0  0  0  0  0  0  0  0  0  0  0
   35.8055   15.7686    0.0000 C   0  0  0  0  0  0  0  0  0  0  0  0
   36.5200   16.1811    0.0000 C   0  0  0  0  0  0  0  0  0  0  0  0
   37.2345   15.7686    0.0000 C   0  0  0  0  0  0  0  0  0  0  0  0
   37.9489   16.1811    0.0000 C   0  0  0  0  0  0  0  0  0  0  0  0
   38.6634   15.7686    0.0000 C   0  0  0  0  0  0  0  0  0  0  0  0
   38.6634   14.9436    0.0000 O   0  0  0  0  0  0  0  0  0  0  0  0
   39.3779   16.1811    0.0000 O   0  0  0  0  0  0  0  0  0  0  0  0
   40.0923   15.7686    0.0000 C   0  0  0  0  0  0  0  0  0  0  0  0
   40.0923   14.9436    0.0000 C   0  0  0  0  0  0  0  0  0  0  0  0
   39.3779   14.5311    0.0000 C   0  0  0  0  0  0  0  0  0  0  0  0
   39.3779   13.7061    0.0000 C   0  0  0  0  0  0  0  0  0  0  0  0
   38.6634   13.2936    0.0000 C   0  0  0  0  0  0  0  0  0  0  0  0
   38.6634   12.4686    0.0000 C   0  0  0  0  0  0  0  0  0  0  0  0
   37.9489   12.0561    0.0000 C   0  0  0  0  0  0  0  0  0  0  0  0
   40.8068   16.1811    0.0000 C   0  0  0  0  0  0  0  0  0  0  0  0
   41.5213   15.7686    0.0000 C   0  0  0  0  0  0  0  0  0  0  0  0
   42.2358   16.1811    0.0000 C   0  0  0  0  0  0  0  0  0  0  0  0
   42.9502   15.7686    0.0000 C   0  0  0  0  0  0  0  0  0  0  0  0
   43.6647   16.1811    0.0000 C   0  0  0  0  0  0  0  0  0  0  0  0
   44.3792   15.7686    0.0000 C   0  0  0  0  0  0  0  0  0  0  0  0
   45.0936   16.1811    0.0000 C   0  0  0  0  0  0  0  0  0  0  0  0
   45.8081   15.7686    0.0000 C   0  0  0  0  0  0  0  0  0  0  0  0
   46.5226   16.1811    0.0000 C   0  0  0  0  0  0  0  0  0  0  0  0
   47.2371   15.7686    0.0000 C   0  0  0  0  0  0  0  0  0  0  0  0
   47.9515   16.1811    0.0000 C   0  0  0  0  0  0  0  0  0  0  0  0
   47.9515   17.0061    0.0000 O   0  0  0  0  0  0  0  0  0  0  0  0
   48.6660   15.7686    0.0000 O   0  0  0  0  0  0  0  0  0  0  0  0
   49.3805   16.1811    0.0000 C   0  0  0  0  0  0  0  0  0  0  0  0
   50.0949   15.7686    0.0000 C   0  0  0  0  0  0  0  0  0  0  0  0
   50.8094   16.1811    0.0000 C   0  0  0  0  0  0  0  0  0  0  0  0
   51.5239   15.7686    0.0000 C   0  0  0  0  0  0  0  0  0  0  0  0
   52.2384   16.1811    0.0000 C   0  0  0  0  0  0  0  0  0  0  0  0
   52.9528   15.7686    0.0000 C   0  0  0  0  0  0  0  0  0  0  0  0
   53.6673   16.1811    0.0000 C   0  0  0  0  0  0  0  0  0  0  0  0
   54.3818   15.7686    0.0000 C   0  0  0  0  0  0  0  0  0  0  0  0
   55.0962   16.1811    0.0000 C   0  0  0  0  0  0  0  0  0  0  0  0
   55.8107   15.7686    0.0000 C   0  0  0  0  0  0  0  0  0  0  0  0
   56.5252   16.1811    0.0000 C   0  0  0  0  0  0  0  0  0  0  0  0
   57.2396   15.7686    0.0000 C   0  0  0  0  0  0  0  0  0  0  0  0
   57.9541   16.1811    0.0000 C   0  0  0  0  0  0  0  0  0  0  0  0
   58.6686   15.7686    0.0000 C   0  0  0  0  0  0  0  0  0  0  0  0
   59.3831   16.1811    0.0000 C   0  0  0  0  0  0  0  0  0  0  0  0
   58.6686   14.9436    0.0000 C   0  0  0  0  0  0  0  0  0  0  0  0
  1  2  1  0
  2  3  1  0
  3  4  1  0
  4  5  1  0
  5  6  1  0
  6  7  1  0
  7  8  1  0
  8  9  1  0
  9 10  1  0
 10 11  1  0
 11 12  1  0
 12 13  1  0
 13 14  1  0
 14 15  1  0
 15 16  1  0
 16 17  1  0
 17 18  1  0
 18 19  2  0
 18 20  1  0
 20 21  1  0
 21 22  1  0
 22 23  1  0
 23 24  1  0
 24 25  1  0
 25 26  1  0
 26 27  1  0
 21 28  1  0
 28 29  1  0
 29 30  1  0
 30 31  1  0
 31 32  1  0
 32 33  1  0
 33 34  1  0
 34 35  1  0
 35 36  1  0
 36 37  1  0
 37 38  1  0
 38 39  2  0
 38 40  1  0
 40 41  1  0
 41 42  1  0
 42 43  1  0
 43 44  1  0
 44 45  1  0
 45 46  1  0
 46 47  1  0
 47 48  1  0
 48 49  1  0
 49 50  1  0
 50 51  1  0
 51 52  1  0
 52 53  1  0
 53 54  1  0
 54 55  1  0
 54 56  1  0
M  END
>  <id>  (433) 
3374

>  <casrn>  (433) 
97338-28-8

>  <smiles (First)>  (433) 


>  <Molecular weight>  (433) 
791.3638916015625

>  <name>  (433) 
isohexadecyl 12-[(1-oxooctadecyl)oxy]octadecanoate

>  <Outcome>  (433) 
0

>  <Molecule (RDKit Mol) (InChI Code)>  (433) 
InChI=1S/C52H102O4/c1-5-7-9-11-12-13-14-15-16-17-20-23-30-35-41-47-52(54)56-50(44-38-10-8-6-2)45-39-33-28-24-25-29-34-40-46-51(53)55-48-42-36-31-26-21-18-19-22-27-32-37-43-49(3)4/h49-50H,5-48H2,1-4H3

>  <reference>  (433) 
ECHA

>  <molecule_form>  (433) 
A

>  <ID>  (433) 


>  <SMILES>  (433) 
CCCCCCCCCCCCCCCCCC(=O)OC(CCCCCC)CCCCCCCCCCC(=O)OCCCCCCCCCCCCCC(C)C

>  <ROMol>  (433) 
<rdkit.Chem.rdchem.Mol object at 0x0000027F583F4A50>

$$$$

     RDKit          2D

  5  4  0  0  0  0  0  0  0  0999 V2000
    1.1071    1.2421    0.0000 C   0  0  0  0  0  0  0  0  0  0  0  0
    1.5196    0.5276    0.0000 C   0  0  0  0  0  0  0  0  0  0  0  0
    1.1071   -0.1869    0.0000 C   0  0  0  0  0  0  0  0  0  0  0  0
    1.5196   -0.9014    0.0000 C   0  0  0  0  0  0  0  0  0  0  0  0
    0.2821   -0.1869    0.0000 C   0  0  0  0  0  0  0  0  0  0  0  0
  1  2  1  0
  2  3  1  0
  3  4  1  0
  3  5  1  0
M  END
>  <id>  (434) 
326371

>  <casrn>  (434) 
78-78-4

>  <smiles (First)>  (434) 
CCC(C)C

>  <Molecular weight>  (434) 
72.1487808227539

>  <name>  (434) 
2-Methylbutane

>  <Outcome>  (434) 
0

>  <Molecule (RDKit Mol) (InChI Code)>  (434) 
InChI=1S/C5H12/c1-4-5(2)3/h5H,4H2,1-3H3

>  <reference>  (434) 
ToxValDB

>  <molecule_form>  (434) 
not specified

>  <ID>  (434) 


>  <SMILES>  (434) 
CCC(C)C

>  <ROMol>  (434) 
<rdkit.Chem.rdchem.Mol object at 0x0000027F584445F0>

$$$$

     RDKit          2D

 14 14  0  0  0  0  0  0  0  0999 V2000
   -0.7776    3.7519    0.0000 C   0  0  0  0  0  0  0  0  0  0  0  0
   -0.0631    3.3394    0.0000 C   0  0  0  0  0  0  0  0  0  0  0  0
   -0.0631    2.5144    0.0000 O   0  0  0  0  0  0  0  0  0  0  0  0
    0.6514    2.1019    0.0000 C   0  0  0  0  0  0  0  0  0  0  0  0
    0.6514    1.2769    0.0000 C   0  0  0  0  0  0  0  0  0  0  0  0
    1.3658    0.8644    0.0000 C   0  0  0  0  0  0  0  0  0  0  0  0
    1.3658    0.0394    0.0000 C   0  0  0  0  0  0  0  0  0  0  0  0
    0.6514   -0.3731    0.0000 C   0  0  0  0  0  0  0  0  0  0  0  0
    0.6514   -1.1981    0.0000 C   0  0  0  0  0  0  0  0  0  0  0  0
    1.3658   -1.6106    0.0000 O   0  0  0  0  0  0  0  0  0  0  0  0
    1.3658   -2.4356    0.0000 C   0  0  0  0  0  0  0  0  0  0  0  0
    2.0803   -2.8481    0.0000 C   0  0  0  0  0  0  0  0  0  0  0  0
   -0.0631    0.0394    0.0000 C   0  0  0  0  0  0  0  0  0  0  0  0
   -0.0631    0.8644    0.0000 C   0  0  0  0  0  0  0  0  0  0  0  0
  1  2  1  0
  2  3  1  0
  3  4  1  0
  4  5  1  0
  5  6  1  0
  6  7  1  0
  7  8  1  0
  8  9  1  0
  9 10  1  0
 10 11  1  0
 11 12  1  0
  8 13  1  0
 13 14  1  0
  5 14  1  0
M  END
>  <id>  (435) 
156

>  <casrn>  (435) 
54889-63-3

>  <smiles (First)>  (435) 


>  <Molecular weight>  (435) 
200.31776428222656

>  <name>  (435) 
(1r,4r)-1,4-bis(ethoxymethyl)cyclohexane; (1s,4s)-1,4-bis(ethoxymethyl)cyclohexane

>  <Outcome>  (435) 
0

>  <Molecule (RDKit Mol) (InChI Code)>  (435) 
InChI=1S/C12H24O2/c1-3-13-9-11-5-7-12(8-6-11)10-14-4-2/h11-12H,3-10H2,1-2H3

>  <reference>  (435) 
ECHA

>  <molecule_form>  (435) 
A

>  <ID>  (435) 


>  <SMILES>  (435) 
CCOCC1CCC(COCC)CC1

>  <ROMol>  (435) 
<rdkit.Chem.rdchem.Mol object at 0x0000027F58437120>

$$$$

     RDKit          2D

  8  8  0  0  0  0  0  0  0  0999 V2000
    1.8492    2.2324    0.0000 O   0  0  0  0  0  0  0  0  0  0  0  0
    1.8492    1.4074    0.0000 C   0  0  0  0  0  0  0  0  0  0  0  0
    1.1347    0.9949    0.0000 N   0  0  0  0  0  0  0  0  0  0  0  0
    1.1347    0.1699    0.0000 C   0  0  0  0  0  0  0  0  0  0  0  0
    0.4203   -0.2426    0.0000 C   0  0  0  0  0  0  0  0  0  0  0  0
   -0.2942    0.1699    0.0000 O   0  0  0  0  0  0  0  0  0  0  0  0
   -0.2942    0.9949    0.0000 C   0  0  0  0  0  0  0  0  0  0  0  0
    0.4203    1.4074    0.0000 C   0  0  0  0  0  0  0  0  0  0  0  0
  1  2  2  0
  2  3  1  0
  3  4  1  0
  4  5  1  0
  5  6  1  0
  6  7  1  0
  7  8  1  0
  3  8  1  0
M  END
>  <id>  (436) 
3498

>  <casrn>  (436) 
4394-85-8

>  <smiles (First)>  (436) 


>  <Molecular weight>  (436) 
115.13046264648438

>  <name>  (436) 
morpholine-4-carbaldehyde

>  <Outcome>  (436) 
0

>  <Molecule (RDKit Mol) (InChI Code)>  (436) 
InChI=1S/C5H9NO2/c7-5-6-1-3-8-4-2-6/h5H,1-4H2

>  <reference>  (436) 
ECHA

>  <molecule_form>  (436) 
A

>  <ID>  (436) 


>  <SMILES>  (436) 
O=CN1CCOCC1

>  <ROMol>  (436) 
<rdkit.Chem.rdchem.Mol object at 0x0000027F58419A50>

$$$$

     RDKit          2D

  7  6  0  0  0  0  0  0  0  0999 V2000
    1.3853    2.2962    0.0000 C   0  0  0  0  0  0  0  0  0  0  0  0
    0.9728    1.5817    0.0000 C   0  0  0  0  0  0  0  0  0  0  0  0
    0.1478    1.5817    0.0000 C   0  0  0  0  0  0  0  0  0  0  0  0
    1.3853    0.8672    0.0000 O   0  0  0  0  0  0  0  0  0  0  0  0
    0.9728    0.1528    0.0000 C   0  0  0  0  0  0  0  0  0  0  0  0
    1.3853   -0.5617    0.0000 C   0  0  0  0  0  0  0  0  0  0  0  0
    0.1478    0.1528    0.0000 O   0  0  0  0  0  0  0  0  0  0  0  0
  1  2  1  0
  2  3  2  0
  2  4  1  0
  4  5  1  0
  5  6  1  0
  5  7  2  0
M  END
>  <id>  (437) 
203678

>  <casrn>  (437) 
108-22-5

>  <smiles (First)>  (437) 
CC(=C)OC(C)=O

>  <Molecular weight>  (437) 
100.1158218383789

>  <name>  (437) 
Isopropenyl acetate

>  <Outcome>  (437) 
0

>  <Molecule (RDKit Mol) (InChI Code)>  (437) 
InChI=1S/C5H8O2/c1-4(2)7-5(3)6/h1H2,2-3H3

>  <reference>  (437) 
ToxValDB

>  <molecule_form>  (437) 
not specified

>  <ID>  (437) 


>  <SMILES>  (437) 
C=C(C)OC(C)=O

>  <ROMol>  (437) 
<rdkit.Chem.rdchem.Mol object at 0x0000027F585CBDD0>

$$$$

     RDKit          2D

  9  8  0  0  0  0  0  0  0  0999 V2000
   -0.4817   -0.1679    0.0000 C   0  0  0  0  0  0  0  0  0  0  0  0
    0.2328    0.2446    0.0000 Si  0  0  0  0  0  4  0  0  0  0  0  0
    0.6453   -0.4699    0.0000 C   0  0  0  0  0  0  0  0  0  0  0  0
   -0.1797    0.9590    0.0000 C   0  0  0  0  0  0  0  0  0  0  0  0
    0.9473    0.6571    0.0000 N   0  0  0  0  0  0  0  0  0  0  0  0
    0.9473    1.4821    0.0000 Si  0  0  0  0  0  4  0  0  0  0  0  0
    0.9473    2.3071    0.0000 C   0  0  0  0  0  0  0  0  0  0  0  0
    1.7723    1.4821    0.0000 C   0  0  0  0  0  0  0  0  0  0  0  0
    0.1223    1.4821    0.0000 C   0  0  0  0  0  0  0  0  0  0  0  0
  1  2  1  0
  2  3  1  0
  2  4  1  0
  2  5  1  0
  5  6  1  0
  6  7  1  0
  6  8  1  0
  6  9  1  0
M  END
>  <id>  (438) 
202450

>  <casrn>  (438) 
1070-89-9

>  <smiles (First)>  (438) 
[Na+].C[Si](C)(C)[N-][Si](C)(C)C

>  <Molecular weight>  (438) 
160.38482666015625

>  <name>  (438) 
Silanamine, 1,1,1-trimethyl-N-(trimethylsilyl)-, sodium salt

>  <Outcome>  (438) 
1

>  <Molecule (RDKit Mol) (InChI Code)>  (438) 
InChI=1S/C6H19NSi2/c1-8(2,3)7-9(4,5)6/h7H,1-6H3

>  <reference>  (438) 
ToxValDB

>  <molecule_form>  (438) 
not specified

>  <ID>  (438) 


>  <SMILES>  (438) 
C[Si](C)(C)N[Si](C)(C)C

>  <ROMol>  (438) 
<rdkit.Chem.rdchem.Mol object at 0x0000027F6244F820>

$$$$

     RDKit          2D

 13 12  0  0  0  0  0  0  0  0999 V2000
   -0.6826   -3.3896    0.0000 C   0  0  0  0  0  0  0  0  0  0  0  0
   -0.6826   -2.5646    0.0000 Si  0  0  0  0  0  4  0  0  0  0  0  0
    0.1424   -2.5646    0.0000 C   0  0  0  0  0  0  0  0  0  0  0  0
   -1.5076   -2.5646    0.0000 C   0  0  0  0  0  0  0  0  0  0  0  0
   -0.6826   -1.7396    0.0000 O   0  0  0  0  0  0  0  0  0  0  0  0
    0.0319   -1.3271    0.0000 Si  0  0  0  0  0  4  0  0  0  0  0  0
    0.4444   -2.0416    0.0000 C   0  0  0  0  0  0  0  0  0  0  0  0
   -0.3806   -0.6127    0.0000 C   0  0  0  0  0  0  0  0  0  0  0  0
    0.7463   -0.9146    0.0000 O   0  0  0  0  0  0  0  0  0  0  0  0
    0.7463   -0.0896    0.0000 Si  0  0  0  0  0  4  0  0  0  0  0  0
    0.7463    0.7354    0.0000 C   0  0  0  0  0  0  0  0  0  0  0  0
    1.5713   -0.0896    0.0000 C   0  0  0  0  0  0  0  0  0  0  0  0
   -0.0787   -0.0896    0.0000 C   0  0  0  0  0  0  0  0  0  0  0  0
  1  2  1  0
  2  3  1  0
  2  4  1  0
  2  5  1  0
  5  6  1  0
  6  7  1  0
  6  8  1  0
  6  9  1  0
  9 10  1  0
 10 11  1  0
 10 12  1  0
 10 13  1  0
M  END
>  <id>  (439) 
1247

>  <casrn>  (439) 
107-51-7

>  <smiles (First)>  (439) 


>  <Molecular weight>  (439) 
236.53146362304688

>  <name>  (439) 
2,2,4,4,6,6-hexamethyl-3,5-dioxa-2,4,6-trisilaheptane

>  <Outcome>  (439) 
0

>  <Molecule (RDKit Mol) (InChI Code)>  (439) 
InChI=1S/C8H24O2Si3/c1-11(2,3)9-13(7,8)10-12(4,5)6/h1-8H3

>  <reference>  (439) 
ECHA

>  <molecule_form>  (439) 
V

>  <ID>  (439) 


>  <SMILES>  (439) 
C[Si](C)(C)O[Si](C)(C)O[Si](C)(C)C

>  <ROMol>  (439) 
<rdkit.Chem.rdchem.Mol object at 0x0000027F62463820>

$$$$

     RDKit          2D

  5  4  0  0  0  0  0  0  0  0999 V2000
    2.4742    0.0634    0.0000 Cl  0  0  0  0  0  0  0  0  0  0  0  0
    1.6492    0.0634    0.0000 C   0  0  0  0  0  0  0  0  0  0  0  0
    1.2367   -0.6511    0.0000 C   0  0  0  0  0  0  0  0  0  0  0  0
    1.2367    0.7778    0.0000 C   0  0  0  0  0  0  0  0  0  0  0  0
    0.4117    0.7778    0.0000 C   0  0  0  0  0  0  0  0  0  0  0  0
  1  2  1  0
  2  3  2  0
  2  4  1  0
  4  5  2  0
M  END
>  <id>  (440) 
222567; 222573

>  <casrn>  (440) 
126-99-8

>  <smiles (First)>  (440) 
ClC(=C)C=C

>  <Molecular weight>  (440) 
88.5354995727539

>  <name>  (440) 
Chloroprene

>  <Outcome>  (440) 
0

>  <Molecule (RDKit Mol) (InChI Code)>  (440) 
InChI=1S/C4H5Cl/c1-3-4(2)5/h3H,1-2H2

>  <reference>  (440) 
ToxValDB

>  <molecule_form>  (440) 
not specified

>  <ID>  (440) 


>  <SMILES>  (440) 
C=CC(=C)Cl

>  <ROMol>  (440) 
<rdkit.Chem.rdchem.Mol object at 0x0000027F78E26DD0>

$$$$

     RDKit          2D

 19 18  0  0  0  0  0  0  0  0999 V2000
    3.8368   -1.0542    0.0000 C   0  0  0  0  0  0  0  0  0  0  0  0
    3.8368   -0.2292    0.0000 N   0  0  0  0  0  0  0  0  0  0  0  0
    4.5513    0.1833    0.0000 C   0  0  0  0  0  0  0  0  0  0  0  0
    3.1224    0.1833    0.0000 C   0  0  0  0  0  0  0  0  0  0  0  0
    3.1224    1.0083    0.0000 C   0  0  0  0  0  0  0  0  0  0  0  0
    2.4079    1.4208    0.0000 C   0  0  0  0  0  0  0  0  0  0  0  0
    2.4079    2.2458    0.0000 N   0  0  0  0  0  0  0  0  0  0  0  0
    1.6934    2.6583    0.0000 C   0  0  0  0  0  0  0  0  0  0  0  0
    1.6934    3.4833    0.0000 C   0  0  0  0  0  0  0  0  0  0  0  0
    0.9789    3.8958    0.0000 C   0  0  0  0  0  0  0  0  0  0  0  0
    0.9789    4.7208    0.0000 N   0  0  0  0  0  0  0  0  0  0  0  0
    0.2645    5.1333    0.0000 C   0  0  0  0  0  0  0  0  0  0  0  0
    1.6934    5.1333    0.0000 C   0  0  0  0  0  0  0  0  0  0  0  0
    3.1224    2.6583    0.0000 C   0  0  0  0  0  0  0  0  0  0  0  0
    3.1224    3.4833    0.0000 C   0  0  0  0  0  0  0  0  0  0  0  0
    3.8368    3.8958    0.0000 C   0  0  0  0  0  0  0  0  0  0  0  0
    3.8368    4.7208    0.0000 N   0  0  0  0  0  0  0  0  0  0  0  0
    3.1224    5.1333    0.0000 C   0  0  0  0  0  0  0  0  0  0  0  0
    4.5513    5.1333    0.0000 C   0  0  0  0  0  0  0  0  0  0  0  0
  1  2  1  0
  2  3  1  0
  2  4  1  0
  4  5  1  0
  5  6  1  0
  6  7  1  0
  7  8  1  0
  8  9  1  0
  9 10  1  0
 10 11  1  0
 11 12  1  0
 11 13  1  0
  7 14  1  0
 14 15  1  0
 15 16  1  0
 16 17  1  0
 17 18  1  0
 17 19  1  0
M  END
>  <id>  (441) 
258365

>  <casrn>  (441) 
33329-35-0

>  <smiles (First)>  (441) 
CN(C)CCCN(CCCN(C)C)CCCN(C)C

>  <Molecular weight>  (441) 
272.47314453125

>  <name>  (441) 
N,N-Bis[3-(dimethylamino)propyl]-N,N-dimethylpropane-1,3-diamine

>  <Outcome>  (441) 
1

>  <Molecule (RDKit Mol) (InChI Code)>  (441) 
InChI=1S/C15H36N4/c1-16(2)10-7-13-19(14-8-11-17(3)4)15-9-12-18(5)6/h7-15H2,1-6H3

>  <reference>  (441) 
ToxValDB

>  <molecule_form>  (441) 
not specified

>  <ID>  (441) 


>  <SMILES>  (441) 
CN(C)CCCN(CCCN(C)C)CCCN(C)C

>  <ROMol>  (441) 
<rdkit.Chem.rdchem.Mol object at 0x0000027F6244F510>

$$$$

     RDKit          2D

  5  4  0  0  0  0  0  0  0  0999 V2000
    2.0625   -0.7145    0.0000 C   0  0  0  0  0  0  0  0  0  0  0  0
    1.2375   -0.7145    0.0000 C   0  0  0  0  0  0  0  0  0  0  0  0
    0.8250   -1.4289    0.0000 C   0  0  0  0  0  0  0  0  0  0  0  0
    0.8250    0.0000    0.0000 C   0  0  0  0  0  0  0  0  0  0  0  0
   -0.0000    0.0000    0.0000 O   0  0  0  0  0  0  0  0  0  0  0  0
  1  2  2  0
  2  3  1  0
  2  4  1  0
  4  5  2  0
M  END
>  <id>  (442) 
1651

>  <casrn>  (442) 
78-85-3

>  <smiles (First)>  (442) 


>  <Molecular weight>  (442) 
70.08984375

>  <name>  (442) 
2-methylprop-2-enal

>  <Outcome>  (442) 
1

>  <Molecule (RDKit Mol) (InChI Code)>  (442) 
InChI=1S/C4H6O/c1-4(2)3-5/h3H,1H2,2H3

>  <reference>  (442) 
ECHA

>  <molecule_form>  (442) 
V

>  <ID>  (442) 


>  <SMILES>  (442) 
C=C(C)C=O

>  <ROMol>  (442) 
<rdkit.Chem.rdchem.Mol object at 0x0000027F5C149970>

$$$$

     RDKit          2D

  9  8  0  0  0  0  0  0  0  0999 V2000
    2.9980    2.5571    0.0000 C   0  0  0  0  0  0  0  0  0  0  0  0
    3.7125    2.1446    0.0000 C   0  0  0  0  0  0  0  0  0  0  0  0
    4.4270    2.5571    0.0000 C   0  0  0  0  0  0  0  0  0  0  0  0
    5.1414    2.1446    0.0000 C   0  0  0  0  0  0  0  0  0  0  0  0
    5.8559    2.5571    0.0000 C   0  0  0  0  0  0  0  0  0  0  0  0
    6.5704    2.1446    0.0000 C   0  0  0  0  0  0  0  0  0  0  0  0
    7.2849    2.5571    0.0000 C   0  0  0  0  0  0  0  0  0  0  0  0
    7.9993    2.1446    0.0000 C   0  0  0  0  0  0  0  0  0  0  0  0
    8.7138    2.5571    0.0000 N   0  0  0  0  0  0  0  0  0  0  0  0
  1  2  1  0
  2  3  1  0
  3  4  1  0
  4  5  1  0
  5  6  1  0
  6  7  1  0
  7  8  1  0
  8  9  1  0
M  END
>  <id>  (443) 
3628; 3629

>  <casrn>  (443) 
111-86-4

>  <smiles (First)>  (443) 


>  <Molecular weight>  (443) 
129.2431640625

>  <name>  (443) 
octan-1-amine

>  <Outcome>  (443) 
1

>  <Molecule (RDKit Mol) (InChI Code)>  (443) 
InChI=1S/C8H19N/c1-2-3-4-5-6-7-8-9/h2-9H2,1H3

>  <reference>  (443) 
ECHA

>  <molecule_form>  (443) 
A

>  <ID>  (443) 


>  <SMILES>  (443) 
CCCCCCCCN

>  <ROMol>  (443) 
<rdkit.Chem.rdchem.Mol object at 0x0000027F624DD270>

$$$$

     RDKit          2D

  9  9  0  0  0  0  0  0  0  0999 V2000
   -0.0000    2.4750    0.0000 C   0  0  0  0  0  0  0  0  0  0  0  0
    0.7145    2.0625    0.0000 C   0  0  0  0  0  0  0  0  0  0  0  0
    0.7145    1.2375    0.0000 C   0  0  0  0  0  0  0  0  0  0  0  0
    1.4289    0.8250    0.0000 C   0  0  0  0  0  0  0  0  0  0  0  0
    1.4289    0.0000    0.0000 C   0  0  0  0  0  0  0  0  0  0  0  0
    0.7145   -0.4125    0.0000 C   0  0  0  0  0  0  0  0  0  0  0  0
   -0.0000    0.0000    0.0000 C   0  0  0  0  0  0  0  0  0  0  0  0
   -0.7145   -0.4125    0.0000 C   0  0  0  0  0  0  0  0  0  0  0  0
   -0.0000    0.8250    0.0000 C   0  0  0  0  0  0  0  0  0  0  0  0
  1  2  2  0
  2  3  1  0
  3  4  2  0
  4  5  1  0
  5  6  2  0
  6  7  1  0
  7  8  1  0
  7  9  2  0
  3  9  1  0
M  END
>  <id>  (444) 
4617

>  <casrn>  (444) 
25013-15-4

>  <smiles (First)>  (444) 


>  <Molecular weight>  (444) 
118.17570495605469

>  <name>  (444) 
vinyltoluene

>  <Outcome>  (444) 
1

>  <Molecule (RDKit Mol) (InChI Code)>  (444) 
InChI=1S/C9H10/c1-3-9-6-4-5-8(2)7-9/h3-7H,1H2,2H3

>  <reference>  (444) 
ECHA

>  <molecule_form>  (444) 
V

>  <ID>  (444) 


>  <SMILES>  (444) 
C=Cc1cccc(C)c1

>  <ROMol>  (444) 
<rdkit.Chem.rdchem.Mol object at 0x0000027F58419AC0>

$$$$

     RDKit          2D

 21 20  0  0  0  0  0  0  0  0999 V2000
   -0.6248   -5.1364    0.0000 C   0  0  0  0  0  0  0  0  0  0  0  0
   -1.3392   -4.7239    0.0000 C   0  0  0  0  0  0  0  0  0  0  0  0
   -2.0537   -5.1364    0.0000 C   0  0  0  0  0  0  0  0  0  0  0  0
   -2.7682   -5.5489    0.0000 C   0  0  0  0  0  0  0  0  0  0  0  0
   -1.6412   -5.8508    0.0000 C   0  0  0  0  0  0  0  0  0  0  0  0
   -2.4662   -4.4219    0.0000 C   0  0  0  0  0  0  0  0  0  0  0  0
   -1.3392   -3.8989    0.0000 C   0  0  0  0  0  0  0  0  0  0  0  0
   -0.5142   -3.8989    0.0000 C   0  0  0  0  0  0  0  0  0  0  0  0
   -2.1642   -3.8989    0.0000 C   0  0  0  0  0  0  0  0  0  0  0  0
   -1.3392   -3.0739    0.0000 S   0  0  0  0  0  0  0  0  0  0  0  0
   -0.6248   -2.6614    0.0000 S   0  0  0  0  0  0  0  0  0  0  0  0
   -0.6248   -1.8364    0.0000 S   0  0  0  0  0  0  0  0  0  0  0  0
    0.0897   -1.4239    0.0000 C   0  0  0  0  0  0  0  0  0  0  0  0
    0.5022   -2.1383    0.0000 C   0  0  0  0  0  0  0  0  0  0  0  0
   -0.3228   -0.7094    0.0000 C   0  0  0  0  0  0  0  0  0  0  0  0
    0.8042   -1.0114    0.0000 C   0  0  0  0  0  0  0  0  0  0  0  0
    1.5187   -1.4239    0.0000 C   0  0  0  0  0  0  0  0  0  0  0  0
    0.8042   -0.1864    0.0000 C   0  0  0  0  0  0  0  0  0  0  0  0
    0.8042    0.6386    0.0000 C   0  0  0  0  0  0  0  0  0  0  0  0
    1.6292   -0.1864    0.0000 C   0  0  0  0  0  0  0  0  0  0  0  0
   -0.0208   -0.1864    0.0000 C   0  0  0  0  0  0  0  0  0  0  0  0
  1  2  1  0
  2  3  1  0
  3  4  1  0
  3  5  1  0
  3  6  1  0
  2  7  1  0
  7  8  1  0
  7  9  1  0
  7 10  1  0
 10 11  1  0
 11 12  1  0
 12 13  1  0
 13 14  1  0
 13 15  1  0
 13 16  1  0
 16 17  1  0
 16 18  1  0
 18 19  1  0
 18 20  1  0
 18 21  1  0
M  END
>  <id>  (445) 
2648

>  <casrn>  (445) 
68425-16-1

>  <smiles (First)>  (445) 


>  <Molecular weight>  (445) 
350.6893310546875

>  <name>  (445) 
bis(2,3,4,4-tetramethylpentan-2-yl)trisulfane

>  <Outcome>  (445) 
0

>  <Molecule (RDKit Mol) (InChI Code)>  (445) 
InChI=1S/C18H38S3/c1-13(15(3,4)5)17(9,10)19-21-20-18(11,12)14(2)16(6,7)8/h13-14H,1-12H3

>  <reference>  (445) 
ECHA

>  <molecule_form>  (445) 
A

>  <ID>  (445) 


>  <SMILES>  (445) 
CC(C(C)(C)C)C(C)(C)SSSC(C)(C)C(C)C(C)(C)C

>  <ROMol>  (445) 
<rdkit.Chem.rdchem.Mol object at 0x0000027F5842FBA0>

$$$$

     RDKit          2D

 12 11  0  0  0  0  0  0  0  0999 V2000
    2.9333    2.5583    0.0000 C   0  0  0  0  0  0  0  0  0  0  0  0
    3.6478    2.1458    0.0000 C   0  0  0  0  0  0  0  0  0  0  0  0
    4.3622    2.5583    0.0000 C   0  0  0  0  0  0  0  0  0  0  0  0
    5.0767    2.1458    0.0000 C   0  0  0  0  0  0  0  0  0  0  0  0
    5.7912    2.5583    0.0000 C   0  0  0  0  0  0  0  0  0  0  0  0
    5.7912    3.3833    0.0000 C   0  0  0  0  0  0  0  0  0  0  0  0
    6.5056    3.7958    0.0000 C   0  0  0  0  0  0  0  0  0  0  0  0
    6.5056    2.1458    0.0000 C   0  0  0  0  0  0  0  0  0  0  0  0
    7.2201    2.5583    0.0000 O   0  0  0  0  0  0  0  0  0  0  0  0
    7.9346    2.1458    0.0000 C   0  0  0  0  0  0  0  0  0  0  0  0
    8.6491    2.5583    0.0000 O   0  0  0  0  0  0  0  0  0  0  0  0
    7.9346    1.3208    0.0000 Cl  0  0  0  0  0  0  0  0  0  0  0  0
  1  2  1  0
  2  3  1  0
  3  4  1  0
  4  5  1  0
  5  6  1  0
  6  7  1  0
  5  8  1  0
  8  9  1  0
  9 10  1  0
 10 11  2  0
 10 12  1  0
M  END
>  <id>  (446) 
1474; 1473

>  <casrn>  (446) 
24468-13-1

>  <smiles (First)>  (446) 


>  <Molecular weight>  (446) 
192.68307495117188

>  <name>  (446) 
2-ethylhexyl chlorocarbonate

>  <Outcome>  (446) 
1

>  <Molecule (RDKit Mol) (InChI Code)>  (446) 
InChI=1S/C9H17ClO2/c1-3-5-6-8(4-2)7-12-9(10)11/h8H,3-7H2,1-2H3

>  <reference>  (446) 
ECHA

>  <molecule_form>  (446) 
V

>  <ID>  (446) 


>  <SMILES>  (446) 
CCCCC(CC)COC(=O)Cl

>  <ROMol>  (446) 
<rdkit.Chem.rdchem.Mol object at 0x0000027F585E29E0>

$$$$

     RDKit          2D

 18 19  0  0  0  0  0  0  0  0999 V2000
    2.1171   -0.4531    0.0000 N   0  0  0  0  0  0  0  0  0  0  0  0
    2.1171   -1.2781    0.0000 C   0  0  0  0  0  0  0  0  0  0  0  0
    2.8315   -1.6906    0.0000 C   0  0  0  0  0  0  0  0  0  0  0  0
    2.8315   -2.5156    0.0000 C   0  0  0  0  0  0  0  0  0  0  0  0
    2.1171   -2.9281    0.0000 C   0  0  0  0  0  0  0  0  0  0  0  0
    2.1171   -3.7531    0.0000 N   0  0  0  0  0  0  0  0  0  0  0  0
    1.4026   -4.1656    0.0000 C   0  0  0  0  0  0  0  0  0  0  0  0
    1.4026   -4.9906    0.0000 C   0  0  0  0  0  0  0  0  0  0  0  0
    0.6881   -5.4031    0.0000 C   0  0  0  0  0  0  0  0  0  0  0  0
   -0.0263   -4.9906    0.0000 C   0  0  0  0  0  0  0  0  0  0  0  0
   -0.7408   -5.4031    0.0000 S   0  0  0  0  0  0  0  0  0  0  0  0
   -1.4553   -5.8156    0.0000 N   0  0  0  0  0  0  0  0  0  0  0  0
   -1.1533   -4.6886    0.0000 O   0  0  0  0  0  0  0  0  0  0  0  0
   -0.3283   -6.1175    0.0000 O   0  0  0  0  0  0  0  0  0  0  0  0
   -0.0263   -4.1656    0.0000 C   0  0  0  0  0  0  0  0  0  0  0  0
    0.6881   -3.7531    0.0000 C   0  0  0  0  0  0  0  0  0  0  0  0
    1.4026   -2.5156    0.0000 C   0  0  0  0  0  0  0  0  0  0  0  0
    1.4026   -1.6906    0.0000 C   0  0  0  0  0  0  0  0  0  0  0  0
  1  2  1  0
  2  3  2  0
  3  4  1  0
  4  5  2  0
  5  6  1  0
  6  7  1  0
  7  8  2  0
  8  9  1  0
  9 10  2  0
 10 11  1  0
 11 12  1  0
 11 13  2  0
 11 14  2  0
 10 15  1  0
 15 16  2  0
  7 16  1  0
  5 17  1  0
 17 18  2  0
  2 18  1  0
M  END
>  <id>  (447) 
1830

>  <casrn>  (447) 
16803-97-7

>  <smiles (First)>  (447) 


>  <Molecular weight>  (447) 
263.3155212402344

>  <name>  (447) 
4-amino-N-(4-aminophenyl)benzene-1-sulfonamide

>  <Outcome>  (447) 
0

>  <Molecule (RDKit Mol) (InChI Code)>  (447) 
InChI=1S/C12H13N3O2S/c13-9-1-3-10(4-2-9)15-11-5-7-12(8-6-11)18(14,16)17/h1-8,15H,13H2,(H2,14,16,17)

>  <reference>  (447) 
ECHA

>  <molecule_form>  (447) 
A

>  <ID>  (447) 


>  <SMILES>  (447) 
Nc1ccc(Nc2ccc(S(N)(=O)=O)cc2)cc1

>  <ROMol>  (447) 
<rdkit.Chem.rdchem.Mol object at 0x0000027F58437A50>

$$$$

     RDKit          2D

  9  9  0  0  0  0  0  0  0  0999 V2000
    0.7145    2.0625    0.0000 N   0  0  0  0  0  0  0  0  0  0  0  0
    0.7145    1.2375    0.0000 C   0  0  0  0  0  0  0  0  0  0  0  0
    1.4289    0.8250    0.0000 C   0  0  0  0  0  0  0  0  0  0  0  0
    1.4289    0.0000    0.0000 C   0  0  0  0  0  0  0  0  0  0  0  0
    0.7145   -0.4125    0.0000 C   0  0  0  0  0  0  0  0  0  0  0  0
   -0.0000    0.0000    0.0000 C   0  0  0  0  0  0  0  0  0  0  0  0
   -0.7145   -0.4125    0.0000 Cl  0  0  0  0  0  0  0  0  0  0  0  0
   -0.0000    0.8250    0.0000 C   0  0  0  0  0  0  0  0  0  0  0  0
   -0.7145    1.2375    0.0000 Cl  0  0  0  0  0  0  0  0  0  0  0  0
  1  2  1  0
  2  3  2  0
  3  4  1  0
  4  5  2  0
  5  6  1  0
  6  7  1  0
  6  8  2  0
  2  8  1  0
  8  9  1  0
M  END
>  <id>  (448) 
1282

>  <casrn>  (448) 
608-27-5

>  <smiles (First)>  (448) 


>  <Molecular weight>  (448) 
162.0166015625

>  <name>  (448) 
2,3-dichloroaniline

>  <Outcome>  (448) 
0

>  <Molecule (RDKit Mol) (InChI Code)>  (448) 
InChI=1S/C6H5Cl2N/c7-4-2-1-3-5(9)6(4)8/h1-3H,9H2

>  <reference>  (448) 
ECHA

>  <molecule_form>  (448) 
A

>  <ID>  (448) 


>  <SMILES>  (448) 
Nc1cccc(Cl)c1Cl

>  <ROMol>  (448) 
<rdkit.Chem.rdchem.Mol object at 0x0000027F5842F970>

$$$$

     RDKit          2D

  9  8  0  0  0  0  0  0  0  0999 V2000
    2.9739   -2.2960    0.0000 C   0  0  0  0  0  0  0  0  0  0  0  0
    2.5614   -1.5815    0.0000 C   0  0  0  0  0  0  0  0  0  0  0  0
    3.2758   -1.1690    0.0000 C   0  0  0  0  0  0  0  0  0  0  0  0
    1.8469   -1.9940    0.0000 C   0  0  0  0  0  0  0  0  0  0  0  0
    2.1489   -0.8671    0.0000 O   0  0  0  0  0  0  0  0  0  0  0  0
    1.3239   -0.8671    0.0000 C   0  0  0  0  0  0  0  0  0  0  0  0
    0.9114   -1.5815    0.0000 O   0  0  0  0  0  0  0  0  0  0  0  0
    0.9114   -0.1526    0.0000 C   0  0  0  0  0  0  0  0  0  0  0  0
    0.0864   -0.1526    0.0000 Cl  0  0  0  0  0  0  0  0  0  0  0  0
  1  2  1  0
  2  3  1  0
  2  4  1  0
  2  5  1  0
  5  6  1  0
  6  7  2  0
  6  8  1  0
  8  9  1  0
M  END
>  <id>  (449) 
3911

>  <casrn>  (449) 
107-59-5

>  <smiles (First)>  (449) 


>  <Molecular weight>  (449) 
150.6033477783203

>  <name>  (449) 
tert-butyl 2-chloroacetate

>  <Outcome>  (449) 
1

>  <Molecule (RDKit Mol) (InChI Code)>  (449) 
InChI=1S/C6H11ClO2/c1-6(2,3)9-5(8)4-7/h4H2,1-3H3

>  <reference>  (449) 
ECHA

>  <molecule_form>  (449) 
V

>  <ID>  (449) 


>  <SMILES>  (449) 
CC(C)(C)OC(=O)CCl

>  <ROMol>  (449) 
<rdkit.Chem.rdchem.Mol object at 0x0000027F58419510>

$$$$

     RDKit          2D

  8  7  0  0  0  0  0  0  0  0999 V2000
    1.2981    0.1436    0.0000 C   0  0  0  0  0  0  0  0  0  0  0  0
    0.4731    0.1436    0.0000 S   0  0  0  0  0  0  0  0  0  0  0  0
    0.0606   -0.5709    0.0000 C   0  0  0  0  0  0  0  0  0  0  0  0
   -0.6539   -0.1584    0.0000 C   0  0  0  0  0  0  0  0  0  0  0  0
    0.7750   -0.9834    0.0000 C   0  0  0  0  0  0  0  0  0  0  0  0
   -0.3519   -1.2853    0.0000 C   0  0  0  0  0  0  0  0  0  0  0  0
   -1.1769   -1.2853    0.0000 N   0  0  0  0  0  0  0  0  0  0  0  0
   -1.5894   -1.9998    0.0000 O   0  0  0  0  0  0  0  0  0  0  0  0
  1  2  1  0
  2  3  1  0
  3  4  1  0
  3  5  1  0
  3  6  1  0
  6  7  2  3
  7  8  1  0
M  END
>  <id>  (450) 
803638

>  <casrn>  (450) 
1646-75-9

>  <smiles (First)>  (450) 
CSC(C)(C)\C=N\O

>  <Molecular weight>  (450) 
133.21194458007812

>  <name>  (450) 
Aldicarb oxime

>  <Outcome>  (450) 
1

>  <Molecule (RDKit Mol) (InChI Code)>  (450) 
InChI=1S/C5H11NOS/c1-5(2,8-3)4-6-7/h4,7H,1-3H3

>  <reference>  (450) 
ToxValDB

>  <molecule_form>  (450) 
not specified

>  <ID>  (450) 


>  <SMILES>  (450) 
CSC(C)(C)C=NO

>  <ROMol>  (450) 
<rdkit.Chem.rdchem.Mol object at 0x0000027F58905040>

$$$$

     RDKit          2D

  6  5  0  0  0  0  0  0  0  0999 V2000
    1.1797    1.1797    0.0000 C   0  0  0  0  0  0  0  0  0  0  0  0
    0.7672    0.4652    0.0000 C   0  0  0  0  0  0  0  0  0  0  0  0
    1.1797   -0.2493    0.0000 C   0  0  0  0  0  0  0  0  0  0  0  0
    0.7672   -0.9637    0.0000 N   0  0  0  0  0  0  0  0  0  0  0  0
    1.1797   -1.6782    0.0000 O   0  0  0  0  0  0  0  0  0  0  0  0
   -0.0578   -0.9637    0.0000 O   0  0  0  0  0  0  0  0  0  0  0  0
  1  2  1  0
  2  3  1  0
  3  4  1  0
  4  5  1  0
  4  6  2  0
M  CHG  2   4   1   5  -1
M  END
>  <id>  (451) 
203420

>  <casrn>  (451) 
108-03-2

>  <smiles (First)>  (451) 
CCC[N+]([O-])=O

>  <Molecular weight>  (451) 
89.09317779541016

>  <name>  (451) 
1-Nitropropane

>  <Outcome>  (451) 
1

>  <Molecule (RDKit Mol) (InChI Code)>  (451) 
InChI=1S/C3H7NO2/c1-2-3-4(5)6/h2-3H2,1H3

>  <reference>  (451) 
ToxValDB

>  <molecule_form>  (451) 
not specified

>  <ID>  (451) 


>  <SMILES>  (451) 
CCC[N+](=O)[O-]

>  <ROMol>  (451) 
<rdkit.Chem.rdchem.Mol object at 0x0000027F585CBA50>

$$$$

     RDKit          2D

  8  8  0  0  0  0  0  0  0  0999 V2000
    0.7145    2.0625    0.0000 C   0  0  0  0  0  0  0  0  0  0  0  0
    0.7145    1.2375    0.0000 C   0  0  0  0  0  0  0  0  0  0  0  0
    1.4289    0.8250    0.0000 C   0  0  0  0  0  0  0  0  0  0  0  0
    1.4289    0.0000    0.0000 C   0  0  0  0  0  0  0  0  0  0  0  0
    0.7145   -0.4125    0.0000 C   0  0  0  0  0  0  0  0  0  0  0  0
   -0.0000    0.0000    0.0000 C   0  0  0  0  0  0  0  0  0  0  0  0
   -0.7145   -0.4125    0.0000 C   0  0  0  0  0  0  0  0  0  0  0  0
   -0.0000    0.8250    0.0000 C   0  0  0  0  0  0  0  0  0  0  0  0
  1  2  1  0
  2  3  2  0
  3  4  1  0
  4  5  2  0
  5  6  1  0
  6  7  1  0
  6  8  2  0
  2  8  1  0
M  END
>  <id>  (452) 
1006; 1003; 1009; 1004; 1001; 1002; 1005; 4619; 4618

>  <casrn>  (452) 
108-38-3

>  <smiles (First)>  (452) 


>  <Molecular weight>  (452) 
106.16500091552733

>  <name>  (452) 
1,3-xylene

>  <Outcome>  (452) 
0

>  <Molecule (RDKit Mol) (InChI Code)>  (452) 
InChI=1S/C8H10/c1-7-4-3-5-8(2)6-7/h3-6H,1-2H3

>  <reference>  (452) 
ECHA

>  <molecule_form>  (452) 
V

>  <ID>  (452) 


>  <SMILES>  (452) 
Cc1cccc(C)c1

>  <ROMol>  (452) 
<rdkit.Chem.rdchem.Mol object at 0x0000027F584283C0>

$$$$

     RDKit          2D

  8  8  0  0  0  0  0  0  0  0999 V2000
    1.4227    0.7383    0.0000 O   0  0  0  0  0  0  0  0  0  0  0  0
    0.7082    0.3258    0.0000 C   0  0  0  0  0  0  0  0  0  0  0  0
   -0.0062    0.7383    0.0000 C   0  0  0  0  0  0  0  0  0  0  0  0
   -0.7207    0.3258    0.0000 C   0  0  0  0  0  0  0  0  0  0  0  0
   -0.7207   -0.4992    0.0000 C   0  0  0  0  0  0  0  0  0  0  0  0
   -1.4352   -0.9117    0.0000 Cl  0  0  0  0  0  0  0  0  0  0  0  0
   -0.0062   -0.9117    0.0000 C   0  0  0  0  0  0  0  0  0  0  0  0
    0.7082   -0.4992    0.0000 C   0  0  0  0  0  0  0  0  0  0  0  0
  1  2  1  0
  3  2  2  0
  4  3  1  0
  5  4  2  0
  5  6  1  0
  7  5  1  0
  8  7  2  0
  2  8  1  0
M  END
>  <id>  (453) 
201267; 201279

>  <casrn>  (453) 
106-48-9

>  <smiles (First)>  (453) 
Oc1ccc(Cl)cc1

>  <Molecular weight>  (453) 
128.55630493164062

>  <name>  (453) 
4-Chlorophenol

>  <Outcome>  (453) 
0

>  <Molecule (RDKit Mol) (InChI Code)>  (453) 
InChI=1S/C6H5ClO/c7-5-1-3-6(8)4-2-5/h1-4,8H

>  <reference>  (453) 
ToxValDB

>  <molecule_form>  (453) 
not specified

>  <ID>  (453) 


>  <SMILES>  (453) 
Oc1ccc(Cl)cc1

>  <ROMol>  (453) 
<rdkit.Chem.rdchem.Mol object at 0x0000027F78E26B30>

$$$$

     RDKit          2D

 10 10  0  0  0  0  0  0  0  0999 V2000
    0.7145    2.8875    0.0000 N   0  0  0  0  0  0  0  0  0  0  0  0
    0.7145    2.0625    0.0000 C   0  0  0  0  0  0  0  0  0  0  0  0
    0.7145    1.2375    0.0000 C   0  0  0  0  0  0  0  0  0  0  0  0
    1.4289    0.8250    0.0000 C   0  0  0  0  0  0  0  0  0  0  0  0
    2.1434    1.2375    0.0000 Cl  0  0  0  0  0  0  0  0  0  0  0  0
    1.4289    0.0000    0.0000 C   0  0  0  0  0  0  0  0  0  0  0  0
    0.7145   -0.4125    0.0000 C   0  0  0  0  0  0  0  0  0  0  0  0
    0.0000    0.0000    0.0000 C   0  0  0  0  0  0  0  0  0  0  0  0
    0.0000    0.8250    0.0000 C   0  0  0  0  0  0  0  0  0  0  0  0
   -0.7145    1.2375    0.0000 Cl  0  0  0  0  0  0  0  0  0  0  0  0
  1  2  3  0
  2  3  1  0
  3  4  2  0
  4  5  1  0
  4  6  1  0
  6  7  2  0
  7  8  1  0
  8  9  2  0
  3  9  1  0
  9 10  1  0
M  END
>  <id>  (454) 
1309

>  <casrn>  (454) 
1194-65-6

>  <smiles (First)>  (454) 


>  <Molecular weight>  (454) 
172.01141357421875

>  <name>  (454) 
2,6-dichlorobenzonitrile

>  <Outcome>  (454) 
0

>  <Molecule (RDKit Mol) (InChI Code)>  (454) 
InChI=1S/C7H3Cl2N/c8-6-2-1-3-7(9)5(6)4-10/h1-3H

>  <reference>  (454) 
ECHA

>  <molecule_form>  (454) 
A

>  <ID>  (454) 


>  <SMILES>  (454) 
N#Cc1c(Cl)cccc1Cl

>  <ROMol>  (454) 
<rdkit.Chem.rdchem.Mol object at 0x0000027F78E2C970>

$$$$

     RDKit          2D

  6  5  0  0  0  0  0  0  0  0999 V2000
    0.4085    2.1434    0.0000 N   0  0  0  0  0  0  0  0  0  0  0  0
    0.8210    1.4289    0.0000 C   0  0  0  0  0  0  0  0  0  0  0  0
    1.2335    0.7145    0.0000 C   0  0  0  0  0  0  0  0  0  0  0  0
    0.8210    0.0000    0.0000 C   0  0  0  0  0  0  0  0  0  0  0  0
    1.2335   -0.7145    0.0000 O   0  0  0  0  0  0  0  0  0  0  0  0
   -0.0040    0.0000    0.0000 O   0  0  0  0  0  0  0  0  0  0  0  0
  1  2  3  0
  2  3  1  0
  3  4  1  0
  4  5  2  0
  4  6  1  0
M  END
>  <id>  (455) 
1448; 1689

>  <casrn>  (455) 
372-09-8

>  <smiles (First)>  (455) 


>  <Molecular weight>  (455) 
85.0614242553711

>  <name>  (455) 
2-cyanoacetic acid

>  <Outcome>  (455) 
1

>  <Molecule (RDKit Mol) (InChI Code)>  (455) 
InChI=1S/C3H3NO2/c4-2-1-3(5)6/h1H2,(H,5,6)

>  <reference>  (455) 
ECHA

>  <molecule_form>  (455) 
A

>  <ID>  (455) 


>  <SMILES>  (455) 
N#CCC(=O)O

>  <ROMol>  (455) 
<rdkit.Chem.rdchem.Mol object at 0x0000027F58408BA0>

$$$$

     RDKit          2D

 22 23  0  0  0  0  0  0  0  0999 V2000
   -0.4043   -0.2267    0.0000 C   0  0  0  0  0  0  0  0  0  0  0  0
   -1.1187   -0.6392    0.0000 C   0  0  0  0  0  0  0  0  0  0  0  0
   -1.8332   -0.2267    0.0000 C   0  0  0  0  0  0  0  0  0  0  0  0
   -1.1187   -1.4642    0.0000 C   0  0  0  0  0  0  0  0  0  0  0  0
   -0.4043   -1.8767    0.0000 C   0  0  0  0  0  0  0  0  0  0  0  0
    0.3102   -1.4642    0.0000 C   0  0  0  0  0  0  0  0  0  0  0  0
    1.0247   -1.8767    0.0000 C   0  0  0  0  0  0  0  0  0  0  0  0
    1.7392   -1.4642    0.0000 C   0  0  0  0  0  0  0  0  0  0  0  0
    2.4536   -1.8767    0.0000 C   0  0  0  0  0  0  0  0  0  0  0  0
    2.4536   -2.7017    0.0000 C   0  0  0  0  0  0  0  0  0  0  0  0
    1.7392   -3.1142    0.0000 C   0  0  0  0  0  0  0  0  0  0  0  0
    1.0247   -2.7017    0.0000 C   0  0  0  0  0  0  0  0  0  0  0  0
    0.3102   -3.1142    0.0000 C   0  0  0  0  0  0  0  0  0  0  0  0
   -0.4043   -2.7017    0.0000 C   0  0  0  0  0  0  0  0  0  0  0  0
   -1.1187   -3.1142    0.0000 C   0  0  0  0  0  0  0  0  0  0  0  0
   -1.8332   -2.7017    0.0000 C   0  0  0  0  0  0  0  0  0  0  0  0
   -2.5477   -3.1142    0.0000 C   0  0  0  0  0  0  0  0  0  0  0  0
   -1.8332   -1.8767    0.0000 C   0  0  0  0  0  0  0  0  0  0  0  0
    0.3102   -3.9392    0.0000 S   0  0  0  0  0  0  0  0  0  0  0  0
   -0.5148   -3.9392    0.0000 O   0  0  0  0  0  0  0  0  0  0  0  0
    1.1352   -3.9392    0.0000 O   0  0  0  0  0  0  0  0  0  0  0  0
    0.3102   -4.7642    0.0000 O   0  0  0  0  0  0  0  0  0  0  0  0
  1  2  1  0
  2  3  1  0
  2  4  1  0
  4  5  1  0
  6  5  2  0
  7  6  1  0
  7  8  2  0
  8  9  1  0
  9 10  2  0
 10 11  1  0
 11 12  2  0
 13 12  1  0
 14 13  2  0
 14 15  1  0
 15 16  1  0
 16 17  1  0
 16 18  1  0
 13 19  1  0
 19 20  1  0
 19 21  2  0
 19 22  2  0
  5 14  1  0
 12  7  1  0
M  END
>  <id>  (456) 
253569; 912352

>  <casrn>  (456) 
27213-90-7

>  <smiles (First)>  (456) 
[Na+].CC(C)Cc1cc2ccccc2c(c1CC(C)C)[S]([O-])(=O)=O

>  <Molecular weight>  (456) 
319.43841552734375

>  <name>  (456) 
Diisobutylnaphthalenesulfonic acid sodium salt

>  <Outcome>  (456) 
1

>  <Molecule (RDKit Mol) (InChI Code)>  (456) 
InChI=1S/C18H24O3S/c1-12(2)9-15-11-14-7-5-6-8-16(14)18(22(19,20)21)17(15)10-13(3)4/h5-8,11-13H,9-10H2,1-4H3,(H,19,20,21)

>  <reference>  (456) 
ToxValDB

>  <molecule_form>  (456) 
not specified

>  <ID>  (456) 


>  <SMILES>  (456) 
CC(C)Cc1cc2ccccc2c(S(=O)(=O)O)c1CC(C)C

>  <ROMol>  (456) 
<rdkit.Chem.rdchem.Mol object at 0x0000027F585CBF20>

$$$$

     RDKit          2D

  5  4  0  0  0  0  0  0  0  0999 V2000
    1.3411   -0.3243    0.0000 C   0  0  0  0  0  0  0  0  0  0  0  0
    0.5161   -0.3243    0.0000 C   0  0  0  0  0  0  0  0  0  0  0  0
    0.1036   -1.0387    0.0000 O   0  0  0  0  0  0  0  0  0  0  0  0
    0.1036    0.3902    0.0000 C   0  0  0  0  0  0  0  0  0  0  0  0
   -0.7214    0.3902    0.0000 Cl  0  0  0  0  0  0  0  0  0  0  0  0
  1  2  1  0
  2  3  2  0
  2  4  1  0
  4  5  1  0
M  END
>  <id>  (457) 
326648; 911366

>  <casrn>  (457) 
78-95-5

>  <smiles (First)>  (457) 
CC(=O)CCl

>  <Molecular weight>  (457) 
92.52420043945312

>  <name>  (457) 
1-Chloropropan-2-one

>  <Outcome>  (457) 
1

>  <Molecule (RDKit Mol) (InChI Code)>  (457) 
InChI=1S/C3H5ClO/c1-3(5)2-4/h2H2,1H3

>  <reference>  (457) 
ToxValDB

>  <molecule_form>  (457) 
not specified

>  <ID>  (457) 


>  <SMILES>  (457) 
CC(=O)CCl

>  <ROMol>  (457) 
<rdkit.Chem.rdchem.Mol object at 0x0000027F585E35F0>

$$$$

     RDKit          2D

  5  4  0  0  0  0  0  0  0  0999 V2000
    2.0625   -0.7145    0.0000 C   0  0  0  0  0  0  0  0  0  0  0  0
    1.2375   -0.7145    0.0000 C   0  0  0  0  0  0  0  0  0  0  0  0
    0.8250   -1.4290    0.0000 O   0  0  0  0  0  0  0  0  0  0  0  0
    0.8250   -0.0000    0.0000 O   0  0  0  0  0  0  0  0  0  0  0  0
    0.0000   -0.0000    0.0000 O   0  0  0  0  0  0  0  0  0  0  0  0
  1  2  1  0
  2  3  2  0
  2  4  1  0
  4  5  1  0
M  END
>  <id>  (458) 
3123; 3122; 3120; 3121; 3119

>  <casrn>  (458) 
79-21-0

>  <smiles (First)>  (458) 


>  <Molecular weight>  (458) 
76.05136108398438

>  <name>  (458) 
ethaneperoxoic acid

>  <Outcome>  (458) 
1

>  <Molecule (RDKit Mol) (InChI Code)>  (458) 
InChI=1S/C2H4O3/c1-2(3)5-4/h4H,1H3

>  <reference>  (458) 
ECHA

>  <molecule_form>  (458) 
A

>  <ID>  (458) 


>  <SMILES>  (458) 
CC(=O)OO

>  <ROMol>  (458) 
<rdkit.Chem.rdchem.Mol object at 0x0000027F58905B30>

$$$$

     RDKit          2D

 11 11  0  0  0  0  0  0  0  0999 V2000
    3.2869    0.1812    0.0000 C   0  0  0  0  0  0  0  0  0  0  0  0
    2.5725   -0.2313    0.0000 C   0  0  0  0  0  0  0  0  0  0  0  0
    1.8580    0.1812    0.0000 N   0  0  0  0  0  0  0  0  0  0  0  0
    1.8580    1.0062    0.0000 C   0  0  0  0  0  0  0  0  0  0  0  0
    1.1435    1.4187    0.0000 C   0  0  0  0  0  0  0  0  0  0  0  0
    1.1435   -0.2313    0.0000 C   0  0  0  0  0  0  0  0  0  0  0  0
    0.4291    0.1812    0.0000 C   0  0  0  0  0  0  0  0  0  0  0  0
   -0.2854   -0.2313    0.0000 C   0  0  0  0  0  0  0  0  0  0  0  0
   -0.2854   -1.0563    0.0000 C   0  0  0  0  0  0  0  0  0  0  0  0
    0.4291   -1.4688    0.0000 C   0  0  0  0  0  0  0  0  0  0  0  0
    1.1435   -1.0563    0.0000 C   0  0  0  0  0  0  0  0  0  0  0  0
  1  2  1  0
  2  3  1  0
  3  4  1  0
  4  5  1  0
  3  6  1  0
  7  6  2  0
  8  7  1  0
  9  8  2  0
 10  9  1  0
 11 10  2  0
  6 11  1  0
M  END
>  <id>  (459) 
341414

>  <casrn>  (459) 
91-66-7

>  <smiles (First)>  (459) 
CCN(CC)c1ccccc1

>  <Molecular weight>  (459) 
149.23280334472656

>  <name>  (459) 
N,N-Diethylaniline

>  <Outcome>  (459) 
1

>  <Molecule (RDKit Mol) (InChI Code)>  (459) 
InChI=1S/C10H15N/c1-3-11(4-2)10-8-6-5-7-9-10/h5-9H,3-4H2,1-2H3

>  <reference>  (459) 
ToxValDB

>  <molecule_form>  (459) 
not specified

>  <ID>  (459) 


>  <SMILES>  (459) 
CCN(CC)c1ccccc1

>  <ROMol>  (459) 
<rdkit.Chem.rdchem.Mol object at 0x0000027F6244F890>

$$$$

     RDKit          2D

  8  7  0  0  0  0  0  0  0  0999 V2000
    3.0999   -2.2087    0.0000 C   0  0  0  0  0  0  0  0  0  0  0  0
    2.6874   -1.4943    0.0000 C   0  0  0  0  0  0  0  0  0  0  0  0
    1.8624   -1.4943    0.0000 O   0  0  0  0  0  0  0  0  0  0  0  0
    1.4499   -0.7798    0.0000 C   0  0  0  0  0  0  0  0  0  0  0  0
    2.1644   -0.3673    0.0000 C   0  0  0  0  0  0  0  0  0  0  0  0
    0.7355   -1.1923    0.0000 C   0  0  0  0  0  0  0  0  0  0  0  0
    1.0374   -0.0653    0.0000 C   0  0  0  0  0  0  0  0  0  0  0  0
    0.2124   -0.0653    0.0000 C   0  0  0  0  0  0  0  0  0  0  0  0
  1  2  1  0
  2  3  1  0
  3  4  1  0
  4  5  1  0
  4  6  1  0
  4  7  1  0
  7  8  1  0
M  END
>  <id>  (460) 
280

>  <casrn>  (460) 
919-94-8

>  <smiles (First)>  (460) 


>  <Molecular weight>  (460) 
116.20133972167969

>  <name>  (460) 
-

>  <Outcome>  (460) 
0

>  <Molecule (RDKit Mol) (InChI Code)>  (460) 
InChI=1S/C7H16O/c1-5-7(3,4)8-6-2/h5-6H2,1-4H3

>  <reference>  (460) 
ECHA

>  <molecule_form>  (460) 
V

>  <ID>  (460) 


>  <SMILES>  (460) 
CCOC(C)(C)CC

>  <ROMol>  (460) 
<rdkit.Chem.rdchem.Mol object at 0x0000027F58419430>

$$$$

     RDKit          2D

  8  7  0  0  0  0  0  0  0  0999 V2000
    1.2297    2.3571    0.0000 C   0  0  0  0  0  0  0  0  0  0  0  0
    0.8172    1.6426    0.0000 C   0  0  0  0  0  0  0  0  0  0  0  0
   -0.0078    1.6426    0.0000 O   0  0  0  0  0  0  0  0  0  0  0  0
    1.2297    0.9281    0.0000 C   0  0  0  0  0  0  0  0  0  0  0  0
    2.0547    0.9281    0.0000 N   0  0  0  0  0  0  0  0  0  0  0  0
    0.8172    0.2137    0.0000 C   0  0  0  0  0  0  0  0  0  0  0  0
    1.2297   -0.5008    0.0000 O   0  0  0  0  0  0  0  0  0  0  0  0
   -0.0078    0.2137    0.0000 O   0  0  0  0  0  0  0  0  0  0  0  0
  1  2  1  0
  2  3  1  0
  2  4  1  0
  4  5  1  0
  4  6  1  0
  6  7  2  0
  6  8  1  0
M  END
>  <id>  (461) 
181

>  <casrn>  (461) 
72-19-5

>  <smiles (First)>  (461) 


>  <Molecular weight>  (461) 
119.1191635131836

>  <name>  (461) 
(2S)-2-amino-3-hydroxybutanoic acid

>  <Outcome>  (461) 
0

>  <Molecule (RDKit Mol) (InChI Code)>  (461) 
InChI=1S/C4H9NO3/c1-2(6)3(5)4(7)8/h2-3,6H,5H2,1H3,(H,7,8)

>  <reference>  (461) 
ECHA

>  <molecule_form>  (461) 
A

>  <ID>  (461) 


>  <SMILES>  (461) 
CC(O)C(N)C(=O)O

>  <ROMol>  (461) 
<rdkit.Chem.rdchem.Mol object at 0x0000027F5842F200>

$$$$

     RDKit          2D

  6  5  0  0  0  0  0  0  0  0999 V2000
    0.0366   -1.0839    0.0000 C   0  0  0  0  0  0  0  0  0  0  0  0
    0.7511   -0.6714    0.0000 O   0  0  0  0  0  0  0  0  0  0  0  0
    0.7511    0.1536    0.0000 C   0  0  0  0  0  0  0  0  0  0  0  0
    0.7511    0.9786    0.0000 C   0  0  0  0  0  0  0  0  0  0  0  0
    1.5761    0.1536    0.0000 C   0  0  0  0  0  0  0  0  0  0  0  0
   -0.0739    0.1536    0.0000 C   0  0  0  0  0  0  0  0  0  0  0  0
  1  2  1  0
  2  3  1  0
  3  4  1  0
  3  5  1  0
  3  6  1  0
M  END
>  <id>  (462) 
1495

>  <casrn>  (462) 
1634-04-4

>  <smiles (First)>  (462) 


>  <Molecular weight>  (462) 
88.14817810058594

>  <name>  (462) 
2-methoxy-2-methylpropane

>  <Outcome>  (462) 
0

>  <Molecule (RDKit Mol) (InChI Code)>  (462) 
InChI=1S/C5H12O/c1-5(2,3)6-4/h1-4H3

>  <reference>  (462) 
ECHA

>  <molecule_form>  (462) 
V

>  <ID>  (462) 


>  <SMILES>  (462) 
COC(C)(C)C

>  <ROMol>  (462) 
<rdkit.Chem.rdchem.Mol object at 0x0000027F6246B820>

$$$$

     RDKit          2D

 14 15  0  0  0  0  0  0  0  0999 V2000
    0.7145   -0.4125    0.0000 N   0  0  0  0  0  0  0  0  0  0  0  0
    0.7145   -1.2375    0.0000 C   0  0  0  0  0  0  0  0  0  0  0  0
    1.4290   -1.6500    0.0000 N   0  0  0  0  0  0  0  0  0  0  0  0
    1.4290   -2.4750    0.0000 C   0  0  0  0  0  0  0  0  0  0  0  0
    2.1434   -2.8875    0.0000 N   0  0  0  0  0  0  0  0  0  0  0  0
    0.7145   -2.8875    0.0000 N   0  0  0  0  0  0  0  0  0  0  0  0
    0.0000   -2.4750    0.0000 C   0  0  0  0  0  0  0  0  0  0  0  0
   -0.7145   -2.8875    0.0000 C   0  0  0  0  0  0  0  0  0  0  0  0
   -0.7145   -3.7125    0.0000 C   0  0  0  0  0  0  0  0  0  0  0  0
   -1.4289   -4.1250    0.0000 C   0  0  0  0  0  0  0  0  0  0  0  0
   -2.1434   -3.7125    0.0000 C   0  0  0  0  0  0  0  0  0  0  0  0
   -2.1434   -2.8875    0.0000 C   0  0  0  0  0  0  0  0  0  0  0  0
   -1.4289   -2.4750    0.0000 C   0  0  0  0  0  0  0  0  0  0  0  0
    0.0000   -1.6500    0.0000 N   0  0  0  0  0  0  0  0  0  0  0  0
  1  2  1  0
  2  3  2  0
  3  4  1  0
  4  5  1  0
  4  6  2  0
  6  7  1  0
  7  8  1  0
  8  9  2  0
  9 10  1  0
 10 11  2  0
 11 12  1  0
 12 13  2  0
  8 13  1  0
  7 14  2  0
  2 14  1  0
M  END
>  <id>  (463) 
1885

>  <casrn>  (463) 
91-76-9

>  <smiles (First)>  (463) 


>  <Molecular weight>  (463) 
187.20126342773438

>  <name>  (463) 
6-phenyl-1,3,5-triazine-2,4-diamine

>  <Outcome>  (463) 
1

>  <Molecule (RDKit Mol) (InChI Code)>  (463) 
InChI=1S/C9H9N5/c10-8-12-7(13-9(11)14-8)6-4-2-1-3-5-6/h1-5H,(H4,10,11,12,13,14)

>  <reference>  (463) 
ECHA

>  <molecule_form>  (463) 
A

>  <ID>  (463) 


>  <SMILES>  (463) 
Nc1nc(N)nc(-c2ccccc2)n1

>  <ROMol>  (463) 
<rdkit.Chem.rdchem.Mol object at 0x0000027F624634A0>

$$$$

     RDKit          2D

 17 18  0  0  0  0  0  0  0  0999 V2000
    1.2375   -2.1434    0.0000 C   0  0  0  0  0  0  0  0  0  0  0  0
    0.8250   -1.4289    0.0000 C   0  0  0  0  0  0  0  0  0  0  0  0
    0.4125   -0.7144    0.0000 C   0  0  0  0  0  0  0  0  0  0  0  0
    0.1105   -1.8414    0.0000 C   0  0  0  0  0  0  0  0  0  0  0  0
   -0.6039   -1.4289    0.0000 C   0  0  0  0  0  0  0  0  0  0  0  0
   -1.3184   -1.8414    0.0000 C   0  0  0  0  0  0  0  0  0  0  0  0
   -1.3184   -2.6664    0.0000 C   0  0  0  0  0  0  0  0  0  0  0  0
   -2.0329   -3.0789    0.0000 O   0  0  0  0  0  0  0  0  0  0  0  0
   -0.6039   -3.0789    0.0000 C   0  0  0  0  0  0  0  0  0  0  0  0
    0.1105   -2.6664    0.0000 C   0  0  0  0  0  0  0  0  0  0  0  0
    1.5395   -1.0164    0.0000 C   0  0  0  0  0  0  0  0  0  0  0  0
    2.2539   -1.4289    0.0000 C   0  0  0  0  0  0  0  0  0  0  0  0
    2.9684   -1.0164    0.0000 C   0  0  0  0  0  0  0  0  0  0  0  0
    2.9684   -0.1914    0.0000 C   0  0  0  0  0  0  0  0  0  0  0  0
    3.6829    0.2211    0.0000 O   0  0  0  0  0  0  0  0  0  0  0  0
    2.2539    0.2211    0.0000 C   0  0  0  0  0  0  0  0  0  0  0  0
    1.5395   -0.1914    0.0000 C   0  0  0  0  0  0  0  0  0  0  0  0
  1  2  1  0
  2  3  1  0
  2  4  1  0
  5  4  2  0
  6  5  1  0
  7  6  2  0
  7  8  1  0
  9  7  1  0
 10  9  2  0
  2 11  1  0
 12 11  2  0
 13 12  1  0
 14 13  2  0
 14 15  1  0
 16 14  1  0
 17 16  2  0
  4 10  1  0
 11 17  1  0
M  END
>  <id>  (464) 
802640

>  <casrn>  (464) 
80-05-7

>  <smiles (First)>  (464) 
CC(C)(c1ccc(O)cc1)c2ccc(O)cc2

>  <Molecular weight>  (464) 
228.28634643554688

>  <name>  (464) 
Bisphenol A

>  <Outcome>  (464) 
0

>  <Molecule (RDKit Mol) (InChI Code)>  (464) 
InChI=1S/C15H16O2/c1-15(2,11-3-7-13(16)8-4-11)12-5-9-14(17)10-6-12/h3-10,16-17H,1-2H3

>  <reference>  (464) 
ToxValDB

>  <molecule_form>  (464) 
not specified

>  <ID>  (464) 


>  <SMILES>  (464) 
CC(C)(c1ccc(O)cc1)c1ccc(O)cc1

>  <ROMol>  (464) 
<rdkit.Chem.rdchem.Mol object at 0x0000027F585CB0B0>

$$$$

     RDKit          2D

  4  3  0  0  0  0  0  0  0  0999 V2000
    1.2375    0.7145    0.0000 N   0  0  0  0  0  0  0  0  0  0  0  0
    0.8250   -0.0000    0.0000 C   0  0  0  0  0  0  0  0  0  0  0  0
    1.2375   -0.7145    0.0000 N   0  0  0  0  0  0  0  0  0  0  0  0
   -0.0000   -0.0000    0.0000 N   0  0  0  0  0  0  0  0  0  0  0  0
  1  2  2  0
  2  3  1  0
  2  4  1  0
M  END
>  <id>  (465) 
3229

>  <casrn>  (465) 
50-01-1

>  <smiles (First)>  (465) 


>  <Molecular weight>  (465) 
59.070499420166016

>  <name>  (465) 
guanidine hydrochloride

>  <Outcome>  (465) 
1

>  <Molecule (RDKit Mol) (InChI Code)>  (465) 
InChI=1S/CH5N3/c2-1(3)4/h(H5,2,3,4)

>  <reference>  (465) 
ECHA

>  <molecule_form>  (465) 
A

>  <ID>  (465) 


>  <SMILES>  (465) 
N=C(N)N

>  <ROMol>  (465) 
<rdkit.Chem.rdchem.Mol object at 0x0000027F584AC970>

$$$$

     RDKit          2D

 37 40  0  0  0  0  0  0  0  0999 V2000
    6.2992   -1.1918    0.0000 C   0  0  0  0  0  0  0  0  0  0  0  0
    5.5847   -1.6043    0.0000 C   0  0  0  0  0  0  0  0  0  0  0  0
    4.8703   -1.1918    0.0000 C   0  0  0  0  0  0  0  0  0  0  0  0
    4.1558   -1.6043    0.0000 C   0  0  0  0  0  0  0  0  0  0  0  0
    3.4413   -1.1918    0.0000 N   0  0  0  0  0  0  0  0  0  0  0  0
    3.4413   -0.3668    0.0000 C   0  0  0  0  0  0  0  0  0  0  0  0
    4.1558    0.0457    0.0000 C   0  0  0  0  0  0  0  0  0  0  0  0
    4.1558    0.8707    0.0000 C   0  0  0  0  0  0  0  0  0  0  0  0
    4.8703    1.2832    0.0000 S   0  0  0  0  0  0  0  0  0  0  0  0
    5.5847    1.6957    0.0000 O   0  0  0  0  0  0  0  0  0  0  0  0
    4.4578    1.9976    0.0000 O   0  0  0  0  0  0  0  0  0  0  0  0
    5.2828    0.5687    0.0000 O   0  0  0  0  0  0  0  0  0  0  0  0
    3.4413    1.2832    0.0000 C   0  0  0  0  0  0  0  0  0  0  0  0
    3.4413    2.1082    0.0000 N   0  0  0  0  0  0  0  0  0  0  0  0
    2.7269    0.8707    0.0000 C   0  0  0  0  0  0  0  0  0  0  0  0
    2.7269    0.0457    0.0000 C   0  0  0  0  0  0  0  0  0  0  0  0
    2.0124   -0.3668    0.0000 C   0  0  0  0  0  0  0  0  0  0  0  0
    2.0124   -1.1918    0.0000 O   0  0  0  0  0  0  0  0  0  0  0  0
    1.2979    0.0457    0.0000 C   0  0  0  0  0  0  0  0  0  0  0  0
    0.5835   -0.3668    0.0000 C   0  0  0  0  0  0  0  0  0  0  0  0
   -0.1310    0.0457    0.0000 C   0  0  0  0  0  0  0  0  0  0  0  0
   -0.1310    0.8707    0.0000 C   0  0  0  0  0  0  0  0  0  0  0  0
    0.5835    1.2832    0.0000 C   0  0  0  0  0  0  0  0  0  0  0  0
    1.2979    0.8707    0.0000 C   0  0  0  0  0  0  0  0  0  0  0  0
    2.0124    1.2832    0.0000 C   0  0  0  0  0  0  0  0  0  0  0  0
    2.0124    2.1082    0.0000 O   0  0  0  0  0  0  0  0  0  0  0  0
    4.1558   -2.4293    0.0000 C   0  0  0  0  0  0  0  0  0  0  0  0
    4.8703   -2.8418    0.0000 C   0  0  0  0  0  0  0  0  0  0  0  0
    4.8703   -3.6668    0.0000 S   0  0  0  0  0  0  0  0  0  0  0  0
    4.0453   -3.6668    0.0000 O   0  0  0  0  0  0  0  0  0  0  0  0
    5.6953   -3.6668    0.0000 O   0  0  0  0  0  0  0  0  0  0  0  0
    4.8703   -4.4918    0.0000 N   0  0  0  0  0  0  0  0  0  0  0  0
    5.5847   -4.9043    0.0000 C   0  0  0  0  0  0  0  0  0  0  0  0
    5.5847   -5.7293    0.0000 C   0  0  0  0  0  0  0  0  0  0  0  0
    6.2992   -6.1418    0.0000 O   0  0  0  0  0  0  0  0  0  0  0  0
    5.5847   -2.4293    0.0000 C   0  0  0  0  0  0  0  0  0  0  0  0
    6.2992   -2.8418    0.0000 C   0  0  0  0  0  0  0  0  0  0  0  0
  1  2  1  0
  2  3  2  0
  3  4  1  0
  4  5  1  0
  5  6  1  0
  6  7  2  0
  7  8  1  0
  8  9  1  0
  9 10  2  0
  9 11  2  0
  9 12  1  0
  8 13  2  0
 13 14  1  0
 13 15  1  0
 15 16  2  0
  6 16  1  0
 16 17  1  0
 17 18  2  0
 17 19  1  0
 19 20  2  0
 20 21  1  0
 21 22  2  0
 22 23  1  0
 23 24  2  0
 19 24  1  0
 24 25  1  0
 15 25  1  0
 25 26  2  0
  4 27  2  0
 27 28  1  0
 28 29  1  0
 29 30  2  0
 29 31  2  0
 29 32  1  0
 32 33  1  0
 33 34  1  0
 34 35  1  0
 28 36  2  0
  2 36  1  0
 36 37  1  0
M  END
>  <id>  (466) 
3843

>  <casrn>  (466) 
25797-81-3

>  <smiles (First)>  (466) 


>  <Molecular weight>  (466) 
544.5767822265625

>  <name>  (466) 
sodium 1-amino-4-({3-[(2-hydroxyethyl)sulfamoyl]-4,5-dimethylphenyl}amino)-9,10-dioxo-9,10-dihydroanthracene-2-sulfonate

>  <Outcome>  (466) 
0

>  <Molecule (RDKit Mol) (InChI Code)>  (466) 
InChI=1S/C24H23N3O8S2/c1-12-9-14(10-18(13(12)2)36(31,32)26-7-8-28)27-17-11-19(37(33,34)35)22(25)21-20(17)23(29)15-5-3-4-6-16(15)24(21)30/h3-6,9-11,26-28H,7-8,25H2,1-2H3,(H,33,34,35)

>  <reference>  (466) 
ECHA

>  <molecule_form>  (466) 
A

>  <ID>  (466) 


>  <SMILES>  (466) 
Cc1cc(Nc2cc(S(=O)(=O)O)c(N)c3c2C(=O)c2ccccc2C3=O)cc(S(=O)(=O)NCCO)c1C

>  <ROMol>  (466) 
<rdkit.Chem.rdchem.Mol object at 0x0000027F585E2820>

$$$$

     RDKit          2D

 10 10  0  0  0  0  0  0  0  0999 V2000
    1.8169    1.7079    0.0000 C   0  0  0  0  0  0  0  0  0  0  0  0
    1.1025    1.2954    0.0000 C   0  0  0  0  0  0  0  0  0  0  0  0
    1.1025    0.4704    0.0000 C   0  0  0  0  0  0  0  0  0  0  0  0
    0.3880    0.0579    0.0000 C   0  0  0  0  0  0  0  0  0  0  0  0
    0.9183   -0.5741    0.0000 C   0  0  0  0  0  0  0  0  0  0  0  0
   -0.1423   -0.5741    0.0000 C   0  0  0  0  0  0  0  0  0  0  0  0
   -0.3265    0.4704    0.0000 C   0  0  0  0  0  0  0  0  0  0  0  0
   -0.3265    1.2954    0.0000 C   0  0  0  0  0  0  0  0  0  0  0  0
   -1.0409    1.7079    0.0000 O   0  0  0  0  0  0  0  0  0  0  0  0
    0.3880    1.7079    0.0000 C   0  0  0  0  0  0  0  0  0  0  0  0
  1  2  1  0
  2  3  2  0
  3  4  1  0
  4  5  1  0
  4  6  1  0
  4  7  1  0
  7  8  1  0
  8  9  2  0
  8 10  1  0
  2 10  1  0
M  END
>  <id>  (467) 
1729

>  <casrn>  (467) 
471-01-2

>  <smiles (First)>  (467) 


>  <Molecular weight>  (467) 
138.2068634033203

>  <name>  (467) 
3,5,5-trimethylcyclohex-3-en-1-one

>  <Outcome>  (467) 
1

>  <Molecule (RDKit Mol) (InChI Code)>  (467) 
InChI=1S/C9H14O/c1-7-4-8(10)6-9(2,3)5-7/h5H,4,6H2,1-3H3

>  <reference>  (467) 
ECHA

>  <molecule_form>  (467) 
V

>  <ID>  (467) 


>  <SMILES>  (467) 
CC1=CC(C)(C)CC(=O)C1

>  <ROMol>  (467) 
<rdkit.Chem.rdchem.Mol object at 0x0000027F624B15F0>

$$$$

     RDKit          2D

  8  7  0  0  0  0  0  0  0  0999 V2000
    1.0461    1.4289    0.0000 O   0  0  0  0  0  0  0  0  0  0  0  0
    1.7605    1.8414    0.0000 C   0  0  0  0  0  0  0  0  0  0  0  0
    2.4750    1.4289    0.0000 O   0  0  0  0  0  0  0  0  0  0  0  0
    3.1895    1.8414    0.0000 C   0  0  0  0  0  0  0  0  0  0  0  0
    3.9039    1.4289    0.0000 C   0  0  0  0  0  0  0  0  0  0  0  0
    4.6184    1.8414    0.0000 O   0  0  0  0  0  0  0  0  0  0  0  0
    5.3329    1.4289    0.0000 C   0  0  0  0  0  0  0  0  0  0  0  0
    6.0474    1.8414    0.0000 O   0  0  0  0  0  0  0  0  0  0  0  0
  1  2  2  0
  2  3  1  0
  3  4  1  0
  4  5  1  0
  5  6  1  0
  6  7  1  0
  7  8  2  0
M  END
>  <id>  (468) 
1346

>  <casrn>  (468) 
629-15-2

>  <smiles (First)>  (468) 


>  <Molecular weight>  (468) 
118.08804321289062

>  <name>  (468) 
2-(formyloxy)ethyl formate

>  <Outcome>  (468) 
0

>  <Molecule (RDKit Mol) (InChI Code)>  (468) 
InChI=1S/C4H6O4/c5-3-7-1-2-8-4-6/h3-4H,1-2H2

>  <reference>  (468) 
ECHA

>  <molecule_form>  (468) 
A

>  <ID>  (468) 


>  <SMILES>  (468) 
O=COCCOC=O

>  <ROMol>  (468) 
<rdkit.Chem.rdchem.Mol object at 0x0000027F58428CF0>

$$$$

     RDKit          2D

 12 11  0  0  0  0  0  0  0  0999 V2000
    2.2836    2.1434    0.0000 N   0  0  0  0  0  0  0  0  0  0  0  0
    2.9980    2.5559    0.0000 N   0  0  0  0  0  0  0  0  0  0  0  0
    3.7125    2.1434    0.0000 C   0  0  0  0  0  0  0  0  0  0  0  0
    3.7125    1.3184    0.0000 O   0  0  0  0  0  0  0  0  0  0  0  0
    4.4270    2.5559    0.0000 C   0  0  0  0  0  0  0  0  0  0  0  0
    5.1414    2.1434    0.0000 C   0  0  0  0  0  0  0  0  0  0  0  0
    5.8559    2.5559    0.0000 C   0  0  0  0  0  0  0  0  0  0  0  0
    6.5704    2.1434    0.0000 C   0  0  0  0  0  0  0  0  0  0  0  0
    7.2849    2.5559    0.0000 C   0  0  0  0  0  0  0  0  0  0  0  0
    7.2849    3.3809    0.0000 O   0  0  0  0  0  0  0  0  0  0  0  0
    7.9993    2.1434    0.0000 N   0  0  0  0  0  0  0  0  0  0  0  0
    8.7138    2.5559    0.0000 N   0  0  0  0  0  0  0  0  0  0  0  0
  1  2  1  0
  2  3  1  0
  3  4  2  0
  3  5  1  0
  5  6  1  0
  6  7  1  0
  7  8  1  0
  8  9  1  0
  9 10  2  0
  9 11  1  0
 11 12  1  0
M  END
>  <id>  (469) 
3323

>  <casrn>  (469) 
1071-93-8

>  <smiles (First)>  (469) 


>  <Molecular weight>  (469) 
174.20095825195312

>  <name>  (469) 
hexanedihydrazide

>  <Outcome>  (469) 
0

>  <Molecule (RDKit Mol) (InChI Code)>  (469) 
InChI=1S/C6H14N4O2/c7-9-5(11)3-1-2-4-6(12)10-8/h1-4,7-8H2,(H,9,11)(H,10,12)

>  <reference>  (469) 
ECHA

>  <molecule_form>  (469) 
A

>  <ID>  (469) 


>  <SMILES>  (469) 
NNC(=O)CCCCC(=O)NN

>  <ROMol>  (469) 
<rdkit.Chem.rdchem.Mol object at 0x0000027F58428A50>

$$$$

     RDKit          2D

 10 10  0  0  0  0  0  0  0  0999 V2000
    0.7145    2.0625    0.0000 C   0  0  0  0  0  0  0  0  0  0  0  0
    0.7145    1.2375    0.0000 C   0  0  0  0  0  0  0  0  0  0  0  0
    1.4289    0.8250    0.0000 C   0  0  0  0  0  0  0  0  0  0  0  0
    1.4289   -0.0000    0.0000 C   0  0  0  0  0  0  0  0  0  0  0  0
    0.7145   -0.4125    0.0000 C   0  0  0  0  0  0  0  0  0  0  0  0
    0.7145   -1.2375    0.0000 N   0  0  0  0  0  0  0  0  0  0  0  0
    1.4289   -1.6500    0.0000 O   0  0  0  0  0  0  0  0  0  0  0  0
    0.0000   -1.6500    0.0000 O   0  0  0  0  0  0  0  0  0  0  0  0
    0.0000    0.0000    0.0000 C   0  0  0  0  0  0  0  0  0  0  0  0
    0.0000    0.8250    0.0000 C   0  0  0  0  0  0  0  0  0  0  0  0
  1  2  1  0
  2  3  2  0
  3  4  1  0
  4  5  2  0
  5  6  1  0
  6  7  1  0
  6  8  2  0
  5  9  1  0
  9 10  2  0
  2 10  1  0
M  CHG  2   6   1   7  -1
M  END
>  <id>  (470) 
1198

>  <casrn>  (470) 
99-99-0

>  <smiles (First)>  (470) 


>  <Molecular weight>  (470) 
137.135986328125

>  <name>  (470) 
1-methyl-4-nitrobenzene

>  <Outcome>  (470) 
1

>  <Molecule (RDKit Mol) (InChI Code)>  (470) 
InChI=1S/C7H7NO2/c1-6-2-4-7(5-3-6)8(9)10/h2-5H,1H3

>  <reference>  (470) 
ECHA

>  <molecule_form>  (470) 
A

>  <ID>  (470) 


>  <SMILES>  (470) 
Cc1ccc([N+](=O)[O-])cc1

>  <ROMol>  (470) 
<rdkit.Chem.rdchem.Mol object at 0x0000027F78E37350>

$$$$

     RDKit          2D

 23 24  0  0  0  0  0  0  0  0999 V2000
    0.7145   -2.0625    0.0000 O   0  0  0  0  0  0  0  0  0  0  0  0
    0.7145   -1.2375    0.0000 C   0  0  0  0  0  0  0  0  0  0  0  0
    1.4289   -0.8250    0.0000 O   0  0  0  0  0  0  0  0  0  0  0  0
    2.1434   -1.2375    0.0000 C   0  0  0  0  0  0  0  0  0  0  0  0
    2.8579   -0.8250    0.0000 C   0  0  0  0  0  0  0  0  0  0  0  0
    3.5724   -1.2375    0.0000 O   0  0  0  0  0  0  0  0  0  0  0  0
    4.2868   -0.8250    0.0000 C   0  0  0  0  0  0  0  0  0  0  0  0
    5.0013   -1.2375    0.0000 C   0  0  0  0  0  0  0  0  0  0  0  0
    5.7158   -0.8250    0.0000 O   0  0  0  0  0  0  0  0  0  0  0  0
    6.4302   -1.2375    0.0000 C   0  0  0  0  0  0  0  0  0  0  0  0
    6.4302   -2.0625    0.0000 O   0  0  0  0  0  0  0  0  0  0  0  0
    7.1447   -0.8250    0.0000 C   0  0  0  0  0  0  0  0  0  0  0  0
    7.1447    0.0000    0.0000 C   0  0  0  0  0  0  0  0  0  0  0  0
    7.8592    0.4125    0.0000 C   0  0  0  0  0  0  0  0  0  0  0  0
    8.5737    0.0000    0.0000 C   0  0  0  0  0  0  0  0  0  0  0  0
    8.5737   -0.8250    0.0000 C   0  0  0  0  0  0  0  0  0  0  0  0
    7.8592   -1.2375    0.0000 C   0  0  0  0  0  0  0  0  0  0  0  0
    0.0000   -0.8250    0.0000 C   0  0  0  0  0  0  0  0  0  0  0  0
   -0.7145   -1.2375    0.0000 C   0  0  0  0  0  0  0  0  0  0  0  0
   -1.4289   -0.8250    0.0000 C   0  0  0  0  0  0  0  0  0  0  0  0
   -1.4289    0.0000    0.0000 C   0  0  0  0  0  0  0  0  0  0  0  0
   -0.7145    0.4125    0.0000 C   0  0  0  0  0  0  0  0  0  0  0  0
    0.0000    0.0000    0.0000 C   0  0  0  0  0  0  0  0  0  0  0  0
  1  2  2  0
  2  3  1  0
  3  4  1  0
  4  5  1  0
  5  6  1  0
  6  7  1  0
  7  8  1  0
  8  9  1  0
  9 10  1  0
 10 11  2  0
 10 12  1  0
 12 13  2  0
 13 14  1  0
 14 15  2  0
 15 16  1  0
 16 17  2  0
 12 17  1  0
  2 18  1  0
 18 19  2  0
 19 20  1  0
 20 21  2  0
 21 22  1  0
 22 23  2  0
 18 23  1  0
M  END
>  <id>  (471) 
1404

>  <casrn>  (471) 
120-55-8

>  <smiles (First)>  (471) 


>  <Molecular weight>  (471) 
314.33251953125

>  <name>  (471) 
2-[2-(benzoyloxy)ethoxy]ethyl benzoate

>  <Outcome>  (471) 
0

>  <Molecule (RDKit Mol) (InChI Code)>  (471) 
InChI=1S/C18H18O5/c19-17(15-7-3-1-4-8-15)22-13-11-21-12-14-23-18(20)16-9-5-2-6-10-16/h1-10H,11-14H2

>  <reference>  (471) 
ECHA

>  <molecule_form>  (471) 
A

>  <ID>  (471) 


>  <SMILES>  (471) 
O=C(OCCOCCOC(=O)c1ccccc1)c1ccccc1

>  <ROMol>  (471) 
<rdkit.Chem.rdchem.Mol object at 0x0000027F624B1B30>

$$$$

     RDKit          2D

  5  4  0  0  0  0  0  0  0  0999 V2000
    0.8250   -0.8250    0.0000 C   0  0  0  0  0  0  0  0  0  0  0  0
    0.8250    0.0000    0.0000 Si  0  0  0  0  0  4  0  0  0  0  0  0
    0.8250    0.8250    0.0000 C   0  0  0  0  0  0  0  0  0  0  0  0
    1.6500   -0.0000    0.0000 C   0  0  0  0  0  0  0  0  0  0  0  0
    0.0000    0.0000    0.0000 C   0  0  0  0  0  0  0  0  0  0  0  0
  1  2  1  0
  2  3  1  0
  2  4  1  0
  2  5  1  0
M  END
>  <id>  (472) 
3979

>  <casrn>  (472) 
75-76-3

>  <smiles (First)>  (472) 


>  <Molecular weight>  (472) 
88.22357940673828

>  <name>  (472) 
tetramethylsilane

>  <Outcome>  (472) 
0

>  <Molecule (RDKit Mol) (InChI Code)>  (472) 
InChI=1S/C4H12Si/c1-5(2,3)4/h1-4H3

>  <reference>  (472) 
ECHA

>  <molecule_form>  (472) 
V

>  <ID>  (472) 


>  <SMILES>  (472) 
C[Si](C)(C)C

>  <ROMol>  (472) 
<rdkit.Chem.rdchem.Mol object at 0x0000027F62463040>

$$$$

     RDKit          2D

  6  5  0  0  0  0  0  0  0  0999 V2000
    1.2375    0.7145    0.0000 C   0  0  0  0  0  0  0  0  0  0  0  0
    0.8250   -0.0000    0.0000 C   0  0  0  0  0  0  0  0  0  0  0  0
    1.2375   -0.7145    0.0000 C   0  0  0  0  0  0  0  0  0  0  0  0
   -0.0000   -0.0000    0.0000 C   0  0  0  0  0  0  0  0  0  0  0  0
   -0.4125   -0.7145    0.0000 C   0  0  0  0  0  0  0  0  0  0  0  0
   -0.0000   -1.4289    0.0000 O   0  0  0  0  0  0  0  0  0  0  0  0
  1  2  1  0
  2  3  1  0
  2  4  2  0
  4  5  1  0
  5  6  2  0
M  END
>  <id>  (473) 
1785

>  <casrn>  (473) 
107-86-8

>  <smiles (First)>  (473) 


>  <Molecular weight>  (473) 
84.11642456054688

>  <name>  (473) 
3-methylbut-2-enal

>  <Outcome>  (473) 
1

>  <Molecule (RDKit Mol) (InChI Code)>  (473) 
InChI=1S/C5H8O/c1-5(2)3-4-6/h3-4H,1-2H3

>  <reference>  (473) 
ECHA

>  <molecule_form>  (473) 
V

>  <ID>  (473) 


>  <SMILES>  (473) 
CC(C)=CC=O

>  <ROMol>  (473) 
<rdkit.Chem.rdchem.Mol object at 0x0000027F58905EB0>

$$$$

     RDKit          2D

  5  4  0  0  0  0  0  0  0  0999 V2000
    0.8250   -0.8250    0.0000 C   0  0  0  0  0  0  0  0  0  0  0  0
    0.8250    0.0000    0.0000 Sn  0  0  0  0  0  4  0  0  0  0  0  0
    0.8250    0.8250    0.0000 C   0  0  0  0  0  0  0  0  0  0  0  0
    1.6500   -0.0000    0.0000 Cl  0  0  0  0  0  0  0  0  0  0  0  0
    0.0000    0.0000    0.0000 Cl  0  0  0  0  0  0  0  0  0  0  0  0
  1  2  1  0
  2  3  1  0
  2  4  1  0
  2  5  1  0
M  END
>  <id>  (474) 
3013; 3012; 3014; 3011

>  <casrn>  (474) 
753-73-1

>  <smiles (First)>  (474) 


>  <Molecular weight>  (474) 
219.68504333496094

>  <name>  (474) 
dimethyltin dichloride

>  <Outcome>  (474) 
1

>  <Molecule (RDKit Mol) (InChI Code)>  (474) 
InChI=1S/2CH3.2ClH.Sn/h2*1H3;2*1H;/q;;;;+2/p-2

>  <reference>  (474) 
ECHA

>  <molecule_form>  (474) 
A

>  <ID>  (474) 


>  <SMILES>  (474) 
C[Sn](C)(Cl)Cl

>  <ROMol>  (474) 
<rdkit.Chem.rdchem.Mol object at 0x0000027F5846E580>

$$$$

     RDKit          2D

 31 32  0  0  0  0  0  0  0  0999 V2000
    2.1487   -6.1997    0.0000 C   0  0  0  0  0  0  0  0  0  0  0  0
    2.8632   -6.6122    0.0000 C   0  0  0  0  0  0  0  0  0  0  0  0
    3.5777   -6.1997    0.0000 O   0  0  0  0  0  0  0  0  0  0  0  0
    4.2921   -6.6122    0.0000 C   0  0  0  0  0  0  0  0  0  0  0  0
    4.2921   -7.4372    0.0000 O   0  0  0  0  0  0  0  0  0  0  0  0
    5.0066   -6.1997    0.0000 C   0  0  0  0  0  0  0  0  0  0  0  0
    5.0066   -5.3747    0.0000 C   0  0  0  0  0  0  0  0  0  0  0  0
    5.7211   -6.6122    0.0000 O   0  0  0  0  0  0  0  0  0  0  0  0
    6.4356   -6.1997    0.0000 C   0  0  0  0  0  0  0  0  0  0  0  0
    6.4356   -5.3747    0.0000 O   0  0  0  0  0  0  0  0  0  0  0  0
    7.1500   -6.6122    0.0000 C   0  0  0  0  0  0  0  0  0  0  0  0
    7.8645   -6.1997    0.0000 C   0  0  0  0  0  0  0  0  0  0  0  0
    8.5790   -6.6122    0.0000 C   0  0  0  0  0  0  0  0  0  0  0  0
    9.2934   -6.1997    0.0000 O   0  0  0  0  0  0  0  0  0  0  0  0
   10.0079   -6.6122    0.0000 C   0  0  0  0  0  0  0  0  0  0  0  0
   10.7224   -6.1997    0.0000 C   0  0  0  0  0  0  0  0  0  0  0  0
   11.4368   -6.6122    0.0000 C   0  0  0  0  0  0  0  0  0  0  0  0
   11.4368   -7.4372    0.0000 C   0  0  0  0  0  0  0  0  0  0  0  0
   12.1513   -7.8497    0.0000 C   0  0  0  0  0  0  0  0  0  0  0  0
   12.8658   -8.2622    0.0000 F   0  0  0  0  0  0  0  0  0  0  0  0
   11.7388   -8.5642    0.0000 F   0  0  0  0  0  0  0  0  0  0  0  0
   12.5638   -7.1352    0.0000 F   0  0  0  0  0  0  0  0  0  0  0  0
   10.7224   -7.8497    0.0000 C   0  0  0  0  0  0  0  0  0  0  0  0
   10.0079   -7.4372    0.0000 C   0  0  0  0  0  0  0  0  0  0  0  0
    9.2934   -7.8497    0.0000 Cl  0  0  0  0  0  0  0  0  0  0  0  0
    8.5790   -7.4372    0.0000 C   0  0  0  0  0  0  0  0  0  0  0  0
    7.8645   -7.8497    0.0000 C   0  0  0  0  0  0  0  0  0  0  0  0
    7.1500   -7.4372    0.0000 C   0  0  0  0  0  0  0  0  0  0  0  0
    6.4356   -7.8497    0.0000 N   0  0  0  0  0  0  0  0  0  0  0  0
    5.7211   -7.4372    0.0000 O   0  0  0  0  0  0  0  0  0  0  0  0
    6.4356   -8.6747    0.0000 O   0  0  0  0  0  0  0  0  0  0  0  0
  1  2  1  0
  2  3  1  0
  3  4  1  0
  4  5  2  0
  4  6  1  0
  6  7  1  0
  6  8  1  0
  8  9  1  0
  9 10  2  0
  9 11  1  0
 11 12  2  0
 12 13  1  0
 13 14  1  0
 14 15  1  0
 15 16  2  0
 16 17  1  0
 17 18  2  0
 18 19  1  0
 19 20  1  0
 19 21  1  0
 19 22  1  0
 18 23  1  0
 23 24  2  0
 15 24  1  0
 24 25  1  0
 13 26  2  0
 26 27  1  0
 27 28  2  0
 11 28  1  0
 28 29  1  0
 29 30  1  0
 29 31  2  0
M  CHG  2  29   1  30  -1
M  END
>  <id>  (475) 
610

>  <casrn>  (475) 
77501-63-4

>  <smiles (First)>  (475) 


>  <Molecular weight>  (475) 
461.7731018066406

>  <name>  (475) 
-

>  <Outcome>  (475) 
0

>  <Molecule (RDKit Mol) (InChI Code)>  (475) 
InChI=1S/C19H15ClF3NO7/c1-3-29-17(25)10(2)30-18(26)13-9-12(5-6-15(13)24(27)28)31-16-7-4-11(8-14(16)20)19(21,22)23/h4-10H,3H2,1-2H3

>  <reference>  (475) 
ECHA

>  <molecule_form>  (475) 
A

>  <ID>  (475) 


>  <SMILES>  (475) 
CCOC(=O)C(C)OC(=O)c1cc(Oc2ccc(C(F)(F)F)cc2Cl)ccc1[N+](=O)[O-]

>  <ROMol>  (475) 
<rdkit.Chem.rdchem.Mol object at 0x0000027F58437F20>

$$$$

     RDKit          2D

  9  9  0  0  0  0  0  0  0  0999 V2000
    0.7145    2.0625    0.0000 N   0  0  0  0  0  0  0  0  0  0  0  0
    0.7145    1.2375    0.0000 C   0  0  0  0  0  0  0  0  0  0  0  0
    1.4289    0.8250    0.0000 N   0  0  0  0  0  0  0  0  0  0  0  0
    1.4289    0.0000    0.0000 C   0  0  0  0  0  0  0  0  0  0  0  0
    2.1434   -0.4125    0.0000 N   0  0  0  0  0  0  0  0  0  0  0  0
    0.7145   -0.4125    0.0000 N   0  0  0  0  0  0  0  0  0  0  0  0
   -0.0000    0.0000    0.0000 C   0  0  0  0  0  0  0  0  0  0  0  0
   -0.7145   -0.4125    0.0000 N   0  0  0  0  0  0  0  0  0  0  0  0
   -0.0000    0.8250    0.0000 N   0  0  0  0  0  0  0  0  0  0  0  0
  1  2  1  0
  2  3  2  0
  3  4  1  0
  4  5  1  0
  4  6  2  0
  6  7  1  0
  7  8  1  0
  7  9  2  0
  2  9  1  0
M  END
>  <id>  (476) 
957

>  <casrn>  (476) 
108-78-1

>  <smiles (First)>  (476) 


>  <Molecular weight>  (476) 
126.11994171142578

>  <name>  (476) 
1,3,5-triazine-2,4,6-triamine

>  <Outcome>  (476) 
0

>  <Molecule (RDKit Mol) (InChI Code)>  (476) 
InChI=1S/C3H6N6/c4-1-7-2(5)9-3(6)8-1/h(H6,4,5,6,7,8,9)

>  <reference>  (476) 
ECHA

>  <molecule_form>  (476) 
A

>  <ID>  (476) 


>  <SMILES>  (476) 
Nc1nc(N)nc(N)n1

>  <ROMol>  (476) 
<rdkit.Chem.rdchem.Mol object at 0x0000027F58428C80>

$$$$

     RDKit          2D

  6  5  0  0  0  0  0  0  0  0999 V2000
    1.2700    1.2668    0.0000 C   0  0  0  0  0  0  0  0  0  0  0  0
    0.8575    0.5523    0.0000 C   0  0  0  0  0  0  0  0  0  0  0  0
    1.2700   -0.1622    0.0000 O   0  0  0  0  0  0  0  0  0  0  0  0
    0.8575   -0.8766    0.0000 C   0  0  0  0  0  0  0  0  0  0  0  0
    1.2700   -1.5911    0.0000 Cl  0  0  0  0  0  0  0  0  0  0  0  0
    0.0325   -0.8766    0.0000 O   0  0  0  0  0  0  0  0  0  0  0  0
  1  2  1  0
  2  3  1  0
  3  4  1  0
  4  5  1  0
  4  6  2  0
M  END
>  <id>  (477) 
267952; 906163; 906176

>  <casrn>  (477) 
541-41-3

>  <smiles (First)>  (477) 
CCOC(Cl)=O

>  <Molecular weight>  (477) 
108.52359771728516

>  <name>  (477) 
Ethyl chloroformate

>  <Outcome>  (477) 
1

>  <Molecule (RDKit Mol) (InChI Code)>  (477) 
InChI=1S/C3H5ClO2/c1-2-6-3(4)5/h2H2,1H3

>  <reference>  (477) 
ToxValDB

>  <molecule_form>  (477) 
not specified

>  <ID>  (477) 


>  <SMILES>  (477) 
CCOC(=O)Cl

>  <ROMol>  (477) 
<rdkit.Chem.rdchem.Mol object at 0x0000027F58444D60>

$$$$

     RDKit          2D

  7  6  0  0  0  0  0  0  0  0999 V2000
    2.4172    0.0862    0.0000 C   0  0  0  0  0  0  0  0  0  0  0  0
    2.0047    0.8007    0.0000 O   0  0  0  0  0  0  0  0  0  0  0  0
    1.1797    0.8007    0.0000 Si  0  0  0  0  0  3  0  0  0  0  0  0
    0.7672    1.5151    0.0000 O   0  0  0  0  0  0  0  0  0  0  0  0
   -0.0578    1.5151    0.0000 C   0  0  0  0  0  0  0  0  0  0  0  0
    0.7672    0.0862    0.0000 O   0  0  0  0  0  0  0  0  0  0  0  0
   -0.0578    0.0862    0.0000 C   0  0  0  0  0  0  0  0  0  0  0  0
  1  2  1  0
  2  3  1  0
  3  4  1  0
  4  5  1  0
  3  6  1  0
  6  7  1  0
M  RAD  1   3   2
M  END
>  <id>  (478) 
4093

>  <casrn>  (478) 
2487-90-3

>  <smiles (First)>  (478) 


>  <Molecular weight>  (478) 
121.18726348876953

>  <name>  (478) 
trimethoxysilane

>  <Outcome>  (478) 
1

>  <Molecule (RDKit Mol) (InChI Code)>  (478) 
InChI=1S/C3H9O3Si/c1-4-7(5-2)6-3/h1-3H3

>  <reference>  (478) 
ECHA

>  <molecule_form>  (478) 
V

>  <ID>  (478) 


>  <SMILES>  (478) 
CO[Si](OC)OC

>  <ROMol>  (478) 
<rdkit.Chem.rdchem.Mol object at 0x0000027F5846EA50>

$$$$

     RDKit          2D

 10 10  0  0  0  0  0  0  0  0999 V2000
    0.7145    2.8875    0.0000 N   0  0  0  0  0  0  0  0  0  0  0  0
    0.7145    2.0625    0.0000 C   0  0  0  0  0  0  0  0  0  0  0  0
    0.7145    1.2375    0.0000 C   0  0  0  0  0  0  0  0  0  0  0  0
    1.4289    0.8250    0.0000 C   0  0  0  0  0  0  0  0  0  0  0  0
    2.1434    1.2375    0.0000 F   0  0  0  0  0  0  0  0  0  0  0  0
    1.4289    0.0000    0.0000 C   0  0  0  0  0  0  0  0  0  0  0  0
    0.7145   -0.4125    0.0000 C   0  0  0  0  0  0  0  0  0  0  0  0
    0.0000    0.0000    0.0000 C   0  0  0  0  0  0  0  0  0  0  0  0
    0.0000    0.8250    0.0000 C   0  0  0  0  0  0  0  0  0  0  0  0
   -0.7145    1.2375    0.0000 F   0  0  0  0  0  0  0  0  0  0  0  0
  1  2  3  0
  2  3  1  0
  3  4  2  0
  4  5  1  0
  4  6  1  0
  6  7  2  0
  7  8  1  0
  8  9  2  0
  3  9  1  0
  9 10  1  0
M  END
>  <id>  (479) 
1310

>  <casrn>  (479) 
1897-52-5

>  <smiles (First)>  (479) 


>  <Molecular weight>  (479) 
139.10223388671875

>  <name>  (479) 
2,6-difluorobenzonitrile

>  <Outcome>  (479) 
1

>  <Molecule (RDKit Mol) (InChI Code)>  (479) 
InChI=1S/C7H3F2N/c8-6-2-1-3-7(9)5(6)4-10/h1-3H

>  <reference>  (479) 
ECHA

>  <molecule_form>  (479) 
V

>  <ID>  (479) 


>  <SMILES>  (479) 
N#Cc1c(F)cccc1F

>  <ROMol>  (479) 
<rdkit.Chem.rdchem.Mol object at 0x0000027F5842F6D0>

$$$$

     RDKit          2D

 16 15  0  0  0  0  0  0  0  0999 V2000
    5.1769   -1.0642    0.0000 C   0  0  0  0  0  0  0  0  0  0  0  0
    4.3519   -1.0642    0.0000 C   0  0  0  0  0  0  0  0  0  0  0  0
    3.9394   -1.7787    0.0000 C   0  0  0  0  0  0  0  0  0  0  0  0
    3.9394   -0.3498    0.0000 C   0  0  0  0  0  0  0  0  0  0  0  0
    3.1144   -0.3498    0.0000 C   0  0  0  0  0  0  0  0  0  0  0  0
    3.1144    0.4752    0.0000 C   0  0  0  0  0  0  0  0  0  0  0  0
    3.1144   -1.1748    0.0000 O   0  0  0  0  0  0  0  0  0  0  0  0
    2.2894   -0.3498    0.0000 C   0  0  0  0  0  0  0  0  0  0  0  0
    1.4644   -0.3498    0.0000 C   0  0  0  0  0  0  0  0  0  0  0  0
    0.6394   -0.3498    0.0000 C   0  0  0  0  0  0  0  0  0  0  0  0
    0.6394    0.4752    0.0000 C   0  0  0  0  0  0  0  0  0  0  0  0
    0.6394   -1.1748    0.0000 O   0  0  0  0  0  0  0  0  0  0  0  0
   -0.1856   -0.3498    0.0000 C   0  0  0  0  0  0  0  0  0  0  0  0
   -0.5981    0.3647    0.0000 C   0  0  0  0  0  0  0  0  0  0  0  0
   -1.4231    0.3647    0.0000 C   0  0  0  0  0  0  0  0  0  0  0  0
   -0.1856    1.0792    0.0000 C   0  0  0  0  0  0  0  0  0  0  0  0
  1  2  1  0
  2  3  1  0
  2  4  1  0
  4  5  1  0
  5  6  1  0
  5  7  1  0
  5  8  1  0
  8  9  3  0
  9 10  1  0
 10 11  1  0
 10 12  1  0
 10 13  1  0
 13 14  1  0
 14 15  1  0
 14 16  1  0
M  END
>  <id>  (480) 
797537

>  <casrn>  (480) 
126-86-3

>  <smiles (First)>  (480) 
CC(C)CC(C)(O)C#CC(C)(O)CC(C)C

>  <Molecular weight>  (480) 
226.35504150390625

>  <name>  (480) 
2,4,7,9-Tetramethyl-5-decyne-4,7-diol

>  <Outcome>  (480) 
0

>  <Molecule (RDKit Mol) (InChI Code)>  (480) 
InChI=1S/C14H26O2/c1-11(2)9-13(5,15)7-8-14(6,16)10-12(3)4/h11-12,15-16H,9-10H2,1-6H3

>  <reference>  (480) 
ToxValDB

>  <molecule_form>  (480) 
not specified

>  <ID>  (480) 


>  <SMILES>  (480) 
CC(C)CC(C)(O)C#CC(C)(O)CC(C)C

>  <ROMol>  (480) 
<rdkit.Chem.rdchem.Mol object at 0x0000027F62474820>

$$$$

     RDKit          2D

  5  4  0  0  0  0  0  0  0  0999 V2000
    0.8538   -0.7298    0.0000 C   0  0  0  0  0  0  0  0  0  0  0  0
    0.8538    0.0952    0.0000 C   0  0  0  0  0  0  0  0  0  0  0  0
    0.8538    0.9202    0.0000 C   0  0  0  0  0  0  0  0  0  0  0  0
    1.6788    0.0952    0.0000 C   0  0  0  0  0  0  0  0  0  0  0  0
    0.0288    0.0952    0.0000 S   0  0  0  0  0  0  0  0  0  0  0  0
  1  2  1  0
  2  3  1  0
  2  4  1  0
  2  5  1  0
M  END
>  <id>  (481) 
1669; 1668; 1667

>  <casrn>  (481) 
75-66-1

>  <smiles (First)>  (481) 


>  <Molecular weight>  (481) 
90.18720245361328

>  <name>  (481) 
2-methylpropane-2-thiol

>  <Outcome>  (481) 
0

>  <Molecule (RDKit Mol) (InChI Code)>  (481) 
InChI=1S/C4H10S/c1-4(2,3)5/h5H,1-3H3

>  <reference>  (481) 
ECHA

>  <molecule_form>  (481) 
V

>  <ID>  (481) 


>  <SMILES>  (481) 
CC(C)(C)S

>  <ROMol>  (481) 
<rdkit.Chem.rdchem.Mol object at 0x0000027F5C144C10>

$$$$

     RDKit          2D

 68 68  0  0  0  0  0  0  0  0999 V2000
   -7.8546   -8.0803    0.0000 C   0  0  0  0  0  0  0  0  0  0  0  0
   -7.1401   -8.4928    0.0000 C   0  0  0  0  0  0  0  0  0  0  0  0
   -6.4256   -8.0803    0.0000 C   0  0  0  0  0  0  0  0  0  0  0  0
   -5.7112   -8.4928    0.0000 C   0  0  0  0  0  0  0  0  0  0  0  0
   -4.9967   -8.0803    0.0000 C   0  0  0  0  0  0  0  0  0  0  0  0
   -4.2822   -8.4928    0.0000 C   0  0  0  0  0  0  0  0  0  0  0  0
   -3.5678   -8.0803    0.0000 C   0  0  0  0  0  0  0  0  0  0  0  0
   -2.8533   -8.4928    0.0000 C   0  0  0  0  0  0  0  0  0  0  0  0
   -2.1388   -8.0803    0.0000 C   0  0  0  0  0  0  0  0  0  0  0  0
   -1.4244   -8.4928    0.0000 C   0  0  0  0  0  0  0  0  0  0  0  0
   -0.7099   -8.0803    0.0000 C   0  0  0  0  0  0  0  0  0  0  0  0
   -0.7099   -7.2553    0.0000 C   0  0  0  0  0  0  0  0  0  0  0  0
    0.0046   -6.8428    0.0000 C   0  0  0  0  0  0  0  0  0  0  0  0
    0.0046   -6.0178    0.0000 C   0  0  0  0  0  0  0  0  0  0  0  0
    0.7191   -5.6053    0.0000 C   0  0  0  0  0  0  0  0  0  0  0  0
    0.7191   -4.7803    0.0000 C   0  0  0  0  0  0  0  0  0  0  0  0
    1.4335   -4.3678    0.0000 C   0  0  0  0  0  0  0  0  0  0  0  0
    1.4335   -3.5428    0.0000 C   0  0  0  0  0  0  0  0  0  0  0  0
    0.7191   -3.1303    0.0000 O   0  0  0  0  0  0  0  0  0  0  0  0
    2.1480   -3.1303    0.0000 O   0  0  0  0  0  0  0  0  0  0  0  0
    2.1480   -2.3053    0.0000 C   0  0  0  0  0  0  0  0  0  0  0  0
    2.8625   -1.8928    0.0000 C   0  0  0  0  0  0  0  0  0  0  0  0
    3.5769   -2.3053    0.0000 O   0  0  0  0  0  0  0  0  0  0  0  0
    3.5769   -3.1303    0.0000 C   0  0  0  0  0  0  0  0  0  0  0  0
    2.8625   -3.5428    0.0000 O   0  0  0  0  0  0  0  0  0  0  0  0
    4.2914   -3.5428    0.0000 C   0  0  0  0  0  0  0  0  0  0  0  0
    4.2914   -4.3678    0.0000 C   0  0  0  0  0  0  0  0  0  0  0  0
    5.0059   -4.7803    0.0000 C   0  0  0  0  0  0  0  0  0  0  0  0
    5.0059   -5.6053    0.0000 C   0  0  0  0  0  0  0  0  0  0  0  0
    5.7204   -6.0178    0.0000 C   0  0  0  0  0  0  0  0  0  0  0  0
    5.7204   -6.8428    0.0000 C   0  0  0  0  0  0  0  0  0  0  0  0
    6.4348   -7.2553    0.0000 C   0  0  0  0  0  0  0  0  0  0  0  0
    6.4348   -8.0803    0.0000 C   0  0  0  0  0  0  0  0  0  0  0  0
    7.1493   -8.4928    0.0000 C   0  0  0  0  0  0  0  0  0  0  0  0
    7.1493   -9.3178    0.0000 C   0  0  0  0  0  0  0  0  0  0  0  0
    6.4348   -9.7303    0.0000 C   0  0  0  0  0  0  0  0  0  0  0  0
    6.4348  -10.5553    0.0000 C   0  0  0  0  0  0  0  0  0  0  0  0
    5.7204  -10.9678    0.0000 C   0  0  0  0  0  0  0  0  0  0  0  0
    5.7204  -11.7928    0.0000 C   0  0  0  0  0  0  0  0  0  0  0  0
    5.0059  -12.2053    0.0000 C   0  0  0  0  0  0  0  0  0  0  0  0
    5.0059  -13.0303    0.0000 C   0  0  0  0  0  0  0  0  0  0  0  0
    4.2914  -13.4428    0.0000 C   0  0  0  0  0  0  0  0  0  0  0  0
    2.8625   -1.0678    0.0000 C   0  0  0  0  0  0  0  0  0  0  0  0
    2.1950   -0.5829    0.0000 O   0  0  0  0  0  0  0  0  0  0  0  0
    2.4500    0.2018    0.0000 C   0  0  0  0  0  0  0  0  0  0  0  0
    3.2750    0.2018    0.0000 C   0  0  0  0  0  0  0  0  0  0  0  0
    3.7599    0.8692    0.0000 O   0  0  0  0  0  0  0  0  0  0  0  0
    3.5299   -0.5829    0.0000 C   0  0  0  0  0  0  0  0  0  0  0  0
    4.3145   -0.8378    0.0000 O   0  0  0  0  0  0  0  0  0  0  0  0
    4.9276   -0.2858    0.0000 C   0  0  0  0  0  0  0  0  0  0  0  0
    4.7561    0.5212    0.0000 O   0  0  0  0  0  0  0  0  0  0  0  0
    5.7123   -0.5407    0.0000 C   0  0  0  0  0  0  0  0  0  0  0  0
    6.3253    0.0113    0.0000 C   0  0  0  0  0  0  0  0  0  0  0  0
    7.1100   -0.2436    0.0000 C   0  0  0  0  0  0  0  0  0  0  0  0
    7.7231    0.3084    0.0000 C   0  0  0  0  0  0  0  0  0  0  0  0
    8.5077    0.0535    0.0000 C   0  0  0  0  0  0  0  0  0  0  0  0
    9.1208    0.6055    0.0000 C   0  0  0  0  0  0  0  0  0  0  0  0
    9.9054    0.3506    0.0000 C   0  0  0  0  0  0  0  0  0  0  0  0
   10.5185    0.9026    0.0000 C   0  0  0  0  0  0  0  0  0  0  0  0
   11.3031    0.6477    0.0000 C   0  0  0  0  0  0  0  0  0  0  0  0
   11.9162    1.1997    0.0000 C   0  0  0  0  0  0  0  0  0  0  0  0
   11.7447    2.0067    0.0000 C   0  0  0  0  0  0  0  0  0  0  0  0
   12.3578    2.5587    0.0000 C   0  0  0  0  0  0  0  0  0  0  0  0
   12.1863    3.3657    0.0000 C   0  0  0  0  0  0  0  0  0  0  0  0
   12.7993    3.9177    0.0000 C   0  0  0  0  0  0  0  0  0  0  0  0
   12.6278    4.7247    0.0000 C   0  0  0  0  0  0  0  0  0  0  0  0
   13.2409    5.2767    0.0000 C   0  0  0  0  0  0  0  0  0  0  0  0
   13.0694    6.0837    0.0000 C   0  0  0  0  0  0  0  0  0  0  0  0
  1  2  1  0
  2  3  1  0
  3  4  1  0
  4  5  1  0
  5  6  1  0
  6  7  1  0
  7  8  1  0
  9  8  1  0
  9 10  2  3
 10 11  1  0
 11 12  1  0
 12 13  1  0
 13 14  1  0
 14 15  1  0
 15 16  1  0
 16 17  1  0
 17 18  1  0
 18 19  2  0
 18 20  1  0
 20 21  1  0
 21 22  1  0
 22 23  1  0
 23 24  1  0
 24 25  2  0
 24 26  1  0
 26 27  1  0
 27 28  1  0
 28 29  1  0
 29 30  1  0
 30 31  1  0
 31 32  1  0
 33 32  1  0
 33 34  2  3
 34 35  1  0
 35 36  1  0
 36 37  1  0
 37 38  1  0
 38 39  1  0
 39 40  1  0
 40 41  1  0
 41 42  1  0
 22 43  1  0
 43 44  1  0
 44 45  1  0
 45 46  1  0
 46 47  1  0
 46 48  1  0
 43 48  1  0
 48 49  1  0
 49 50  1  0
 50 51  2  0
 50 52  1  0
 52 53  1  0
 53 54  1  0
 54 55  1  0
 55 56  1  0
 56 57  1  0
 57 58  1  0
 59 58  1  0
 59 60  2  3
 60 61  1  0
 61 62  1  0
 62 63  1  0
 63 64  1  0
 64 65  1  0
 65 66  1  0
 66 67  1  0
 67 68  1  0
M  END
>  <id>  (482) 
2596

>  <casrn>  (482) 
26266-58-0

>  <smiles (First)>  (482) 


>  <Molecular weight>  (482) 
957.4947509765625

>  <name>  (482) 
anhydro-D-glucitol trioleate

>  <Outcome>  (482) 
0

>  <Molecule (RDKit Mol) (InChI Code)>  (482) 
InChI=1S/C60H108O8/c1-4-7-10-13-16-19-22-25-28-31-34-37-40-43-46-49-56(62)65-53-55(67-57(63)50-47-44-41-38-35-32-29-26-23-20-17-14-11-8-5-2)60-59(54(61)52-66-60)68-58(64)51-48-45-42-39-36-33-30-27-24-21-18-15-12-9-6-3/h25-30,54-55,59-61H,4-24,31-53H2,1-3H3

>  <reference>  (482) 
ECHA

>  <molecule_form>  (482) 
A

>  <ID>  (482) 


>  <SMILES>  (482) 
CCCCCCCCC=CCCCCCCCC(=O)OCC(OC(=O)CCCCCCCC=CCCCCCCCC)C1OCC(O)C1OC(=O)CCCCCCCC=CCCCCCCCC

>  <ROMol>  (482) 
<rdkit.Chem.rdchem.Mol object at 0x0000027F5846EC80>

$$$$

     RDKit          2D

 13 13  0  0  0  0  0  0  0  0999 V2000
    1.7042    1.6722    0.0000 C   0  0  0  0  0  0  0  0  0  0  0  0
    0.9897    2.0847    0.0000 O   0  0  0  0  0  0  0  0  0  0  0  0
    0.2753    1.6722    0.0000 C   0  0  0  0  0  0  0  0  0  0  0  0
   -0.4392    2.0847    0.0000 C   0  0  0  0  0  0  0  0  0  0  0  0
   -1.1537    1.6722    0.0000 C   0  0  0  0  0  0  0  0  0  0  0  0
   -1.1537    0.8472    0.0000 C   0  0  0  0  0  0  0  0  0  0  0  0
   -1.8682    0.4347    0.0000 O   0  0  0  0  0  0  0  0  0  0  0  0
   -0.4392    0.4347    0.0000 C   0  0  0  0  0  0  0  0  0  0  0  0
    0.2753    0.8472    0.0000 C   0  0  0  0  0  0  0  0  0  0  0  0
   -0.4392   -0.3903    0.0000 C   0  0  0  0  0  0  0  0  0  0  0  0
   -0.4392   -1.2153    0.0000 C   0  0  0  0  0  0  0  0  0  0  0  0
    0.3858   -0.3903    0.0000 C   0  0  0  0  0  0  0  0  0  0  0  0
   -1.2642   -0.3903    0.0000 C   0  0  0  0  0  0  0  0  0  0  0  0
  1  2  1  0
  2  3  1  0
  4  3  2  0
  5  4  1  0
  6  5  2  0
  6  7  1  0
  8  6  1  0
  9  8  2  0
  8 10  1  0
 10 11  1  0
 10 12  1  0
 10 13  1  0
  3  9  1  0
M  END
>  <id>  (483) 
249681

>  <casrn>  (483) 
25013-16-5

>  <smiles (First)>  (483) 
COc1ccc(O)c(c1)C(C)(C)C

>  <Molecular weight>  (483) 
180.24354553222656

>  <name>  (483) 
Butylated hydroxyanisole

>  <Outcome>  (483) 
0

>  <Molecule (RDKit Mol) (InChI Code)>  (483) 
InChI=1S/C11H16O2/c1-11(2,3)9-7-8(13-4)5-6-10(9)12/h5-7,12H,1-4H3

>  <reference>  (483) 
ToxValDB

>  <molecule_form>  (483) 
not specified

>  <ID>  (483) 


>  <SMILES>  (483) 
COc1ccc(O)c(C(C)(C)C)c1

>  <ROMol>  (483) 
<rdkit.Chem.rdchem.Mol object at 0x0000027F586189E0>

$$$$

     RDKit          2D

  9  9  0  0  0  0  0  0  0  0999 V2000
   -0.7145    2.8875    0.0000 O   0  0  0  0  0  0  0  0  0  0  0  0
   -0.0000    2.4750    0.0000 C   0  0  0  0  0  0  0  0  0  0  0  0
    0.7145    2.0625    0.0000 N   0  0  0  0  0  0  0  0  0  0  0  0
    0.7145    1.2375    0.0000 C   0  0  0  0  0  0  0  0  0  0  0  0
    1.4289    0.8250    0.0000 C   0  0  0  0  0  0  0  0  0  0  0  0
    1.4289    0.0000    0.0000 C   0  0  0  0  0  0  0  0  0  0  0  0
    0.7145   -0.4125    0.0000 C   0  0  0  0  0  0  0  0  0  0  0  0
   -0.0000    0.0000    0.0000 C   0  0  0  0  0  0  0  0  0  0  0  0
   -0.0000    0.8250    0.0000 C   0  0  0  0  0  0  0  0  0  0  0  0
  1  2  2  0
  2  3  2  0
  3  4  1  0
  4  5  2  0
  5  6  1  0
  6  7  2  0
  7  8  1  0
  8  9  2  0
  4  9  1  0
M  END
>  <id>  (484) 
3372

>  <casrn>  (484) 
103-71-9

>  <smiles (First)>  (484) 


>  <Molecular weight>  (484) 
119.1207046508789

>  <name>  (484) 
isocyanatobenzene

>  <Outcome>  (484) 
1

>  <Molecule (RDKit Mol) (InChI Code)>  (484) 
InChI=1S/C7H5NO/c9-6-8-7-4-2-1-3-5-7/h1-5H

>  <reference>  (484) 
ECHA

>  <molecule_form>  (484) 
V

>  <ID>  (484) 


>  <SMILES>  (484) 
O=C=Nc1ccccc1

>  <ROMol>  (484) 
<rdkit.Chem.rdchem.Mol object at 0x0000027F624630B0>

$$$$

     RDKit          2D

  8  7  0  0  0  0  0  0  0  0999 V2000
   -0.5043    0.8683    0.0000 C   0  0  0  0  0  0  0  0  0  0  0  0
    0.2102    1.2808    0.0000 C   0  0  0  0  0  0  0  0  0  0  0  0
    0.2102    2.1058    0.0000 C   0  0  0  0  0  0  0  0  0  0  0  0
    0.9246    0.8683    0.0000 C   0  0  0  0  0  0  0  0  0  0  0  0
    1.6391    1.2808    0.0000 C   0  0  0  0  0  0  0  0  0  0  0  0
    2.3536    0.8683    0.0000 C   0  0  0  0  0  0  0  0  0  0  0  0
    3.0680    1.2808    0.0000 C   0  0  0  0  0  0  0  0  0  0  0  0
    2.3536    0.0433    0.0000 O   0  0  0  0  0  0  0  0  0  0  0  0
  1  2  1  0
  2  3  1  0
  2  4  1  0
  4  5  1  0
  5  6  1  0
  6  7  1  0
  6  8  2  0
M  END
>  <id>  (485) 
205974

>  <casrn>  (485) 
110-12-3

>  <smiles (First)>  (485) 
CC(C)CCC(C)=O

>  <Molecular weight>  (485) 
114.18546295166016

>  <name>  (485) 
5-Methyl-2-hexanone

>  <Outcome>  (485) 
0

>  <Molecule (RDKit Mol) (InChI Code)>  (485) 
InChI=1S/C7H14O/c1-6(2)4-5-7(3)8/h6H,4-5H2,1-3H3

>  <reference>  (485) 
ToxValDB

>  <molecule_form>  (485) 
not specified

>  <ID>  (485) 


>  <SMILES>  (485) 
CC(=O)CCC(C)C

>  <ROMol>  (485) 
<rdkit.Chem.rdchem.Mol object at 0x0000027F6244FBA0>

$$$$

     RDKit          2D

  9  8  0  0  0  0  0  0  0  0999 V2000
    0.8070   -1.4045    0.0000 C   0  0  0  0  0  0  0  0  0  0  0  0
    1.2195   -2.1190    0.0000 C   0  0  0  0  0  0  0  0  0  0  0  0
    2.0445   -2.1190    0.0000 C   0  0  0  0  0  0  0  0  0  0  0  0
    2.4570   -2.8335    0.0000 C   0  0  0  0  0  0  0  0  0  0  0  0
    3.2820   -2.8335    0.0000 C   0  0  0  0  0  0  0  0  0  0  0  0
    3.6945   -3.5479    0.0000 C   0  0  0  0  0  0  0  0  0  0  0  0
    4.5195   -3.5479    0.0000 O   0  0  0  0  0  0  0  0  0  0  0  0
    3.6945   -2.1190    0.0000 C   0  0  0  0  0  0  0  0  0  0  0  0
    4.5195   -2.1190    0.0000 C   0  0  0  0  0  0  0  0  0  0  0  0
  1  2  1  0
  2  3  1  0
  3  4  1  0
  4  5  1  0
  5  6  1  0
  6  7  2  0
  5  8  1  0
  8  9  1  0
M  END
>  <id>  (486) 
1464

>  <casrn>  (486) 
123-05-7

>  <smiles (First)>  (486) 


>  <Molecular weight>  (486) 
128.2120361328125

>  <name>  (486) 
2-ethylhexanal

>  <Outcome>  (486) 
0

>  <Molecule (RDKit Mol) (InChI Code)>  (486) 
InChI=1S/C8H16O/c1-3-5-6-8(4-2)7-9/h7-8H,3-6H2,1-2H3

>  <reference>  (486) 
ECHA

>  <molecule_form>  (486) 
A

>  <ID>  (486) 


>  <SMILES>  (486) 
CCCCC(C=O)CC

>  <ROMol>  (486) 
<rdkit.Chem.rdchem.Mol object at 0x0000027F58408190>

$$$$

     RDKit          2D

 43 47  0  0  0  0  0  0  0  0999 V2000
    3.6448   -2.9141    0.0000 C   0  0  0  0  0  0  0  0  0  0  0  0
    4.3593   -2.5016    0.0000 C   0  0  0  0  0  0  0  0  0  0  0  0
    4.3593   -1.6766    0.0000 C   0  0  0  0  0  0  0  0  0  0  0  0
    3.6448   -1.2641    0.0000 N   0  0  0  0  0  0  0  0  0  0  0  0
    3.6448   -0.4391    0.0000 C   0  0  0  0  0  0  0  0  0  0  0  0
    4.3593   -0.0266    0.0000 C   0  0  0  0  0  0  0  0  0  0  0  0
    4.3593    0.7984    0.0000 C   0  0  0  0  0  0  0  0  0  0  0  0
    5.0738    1.2109    0.0000 S   0  0  0  0  0  0  0  0  0  0  0  0
    5.7882    1.6234    0.0000 O   0  0  0  0  0  0  0  0  0  0  0  0
    4.6613    1.9254    0.0000 O   0  0  0  0  0  0  0  0  0  0  0  0
    5.4863    0.4964    0.0000 O   0  0  0  0  0  0  0  0  0  0  0  0
    3.6448    1.2109    0.0000 C   0  0  0  0  0  0  0  0  0  0  0  0
    3.6448    2.0359    0.0000 N   0  0  0  0  0  0  0  0  0  0  0  0
    2.9304    0.7984    0.0000 C   0  0  0  0  0  0  0  0  0  0  0  0
    2.9304   -0.0266    0.0000 C   0  0  0  0  0  0  0  0  0  0  0  0
    2.2159   -0.4391    0.0000 C   0  0  0  0  0  0  0  0  0  0  0  0
    2.2159   -1.2641    0.0000 O   0  0  0  0  0  0  0  0  0  0  0  0
    1.5014   -0.0266    0.0000 C   0  0  0  0  0  0  0  0  0  0  0  0
    0.7869   -0.4391    0.0000 C   0  0  0  0  0  0  0  0  0  0  0  0
    0.0725   -0.0266    0.0000 C   0  0  0  0  0  0  0  0  0  0  0  0
    0.0725    0.7984    0.0000 C   0  0  0  0  0  0  0  0  0  0  0  0
    0.7869    1.2109    0.0000 C   0  0  0  0  0  0  0  0  0  0  0  0
    1.5014    0.7984    0.0000 C   0  0  0  0  0  0  0  0  0  0  0  0
    2.2159    1.2109    0.0000 C   0  0  0  0  0  0  0  0  0  0  0  0
    2.2159    2.0359    0.0000 O   0  0  0  0  0  0  0  0  0  0  0  0
    5.0738   -1.2641    0.0000 C   0  0  0  0  0  0  0  0  0  0  0  0
    5.7882   -1.6766    0.0000 C   0  0  0  0  0  0  0  0  0  0  0  0
    6.5027   -1.2641    0.0000 S   0  0  0  0  0  0  0  0  0  0  0  0
    7.2172   -0.8516    0.0000 O   0  0  0  0  0  0  0  0  0  0  0  0
    6.9152   -1.9786    0.0000 O   0  0  0  0  0  0  0  0  0  0  0  0
    6.0902   -0.5496    0.0000 O   0  0  0  0  0  0  0  0  0  0  0  0
    5.7882   -2.5016    0.0000 C   0  0  0  0  0  0  0  0  0  0  0  0
    5.0738   -2.9141    0.0000 C   0  0  0  0  0  0  0  0  0  0  0  0
    5.0738   -3.7391    0.0000 N   0  0  0  0  0  0  0  0  0  0  0  0
    4.3593   -4.1516    0.0000 C   0  0  0  0  0  0  0  0  0  0  0  0
    3.6448   -3.7391    0.0000 N   0  0  0  0  0  0  0  0  0  0  0  0
    2.9304   -4.1516    0.0000 C   0  0  0  0  0  0  0  0  0  0  0  0
    2.2159   -3.7391    0.0000 F   0  0  0  0  0  0  0  0  0  0  0  0
    2.9304   -4.9766    0.0000 N   0  0  0  0  0  0  0  0  0  0  0  0
    3.6448   -5.3891    0.0000 C   0  0  0  0  0  0  0  0  0  0  0  0
    3.6448   -6.2141    0.0000 F   0  0  0  0  0  0  0  0  0  0  0  0
    4.3593   -4.9766    0.0000 C   0  0  0  0  0  0  0  0  0  0  0  0
    5.0738   -5.3891    0.0000 Cl  0  0  0  0  0  0  0  0  0  0  0  0
  1  2  1  0
  2  3  2  0
  3  4  1  0
  4  5  1  0
  5  6  2  0
  6  7  1  0
  7  8  1  0
  8  9  2  0
  8 10  2  0
  8 11  1  0
  7 12  2  0
 12 13  1  0
 12 14  1  0
 14 15  2  0
  5 15  1  0
 15 16  1  0
 16 17  2  0
 16 18  1  0
 18 19  2  0
 19 20  1  0
 20 21  2  0
 21 22  1  0
 22 23  2  0
 18 23  1  0
 23 24  1  0
 14 24  1  0
 24 25  2  0
  3 26  1  0
 26 27  2  0
 27 28  1  0
 28 29  2  0
 28 30  2  0
 28 31  1  0
 27 32  1  0
 32 33  2  0
  2 33  1  0
 33 34  1  0
 34 35  1  0
 35 36  2  0
 36 37  1  0
 37 38  1  0
 37 39  2  0
 39 40  1  0
 40 41  1  0
 40 42  2  0
 35 42  1  0
 42 43  1  0
M  END
>  <id>  (487) 
3032

>  <casrn>  (487) 
72139-17-4

>  <smiles (First)>  (487) 


>  <Molecular weight>  (487) 
649.9871826171875

>  <name>  (487) 
disodium 1-amino-4-({3-[(5-chloro-2,6-difluoropyrimidin-4-yl)amino]-2-methyl-5-sulfonatophenyl}amino)-9,10-dioxo-9,10-dihydroanthracene-2-sulfonate

>  <Outcome>  (487) 
0

>  <Molecule (RDKit Mol) (InChI Code)>  (487) 
InChI=1S/C25H16ClF2N5O8S2/c1-9-13(6-10(42(36,37)38)7-14(9)31-24-19(26)23(27)32-25(28)33-24)30-15-8-16(43(39,40)41)20(29)18-17(15)21(34)11-4-2-3-5-12(11)22(18)35/h2-8,30H,29H2,1H3,(H,31,32,33)(H,36,37,38)(H,39,40,41)

>  <reference>  (487) 
ECHA

>  <molecule_form>  (487) 
A

>  <ID>  (487) 


>  <SMILES>  (487) 
Cc1c(Nc2cc(S(=O)(=O)O)c(N)c3c2C(=O)c2ccccc2C3=O)cc(S(=O)(=O)O)cc1Nc1nc(F)nc(F)c1Cl

>  <ROMol>  (487) 
<rdkit.Chem.rdchem.Mol object at 0x0000027F5843A820>

$$$$

     RDKit          2D

 26 27  0  0  0  0  0  0  0  0999 V2000
    0.0315   -0.0398    0.0000 C   0  0  0  0  0  0  0  0  0  0  0  0
   -0.6830   -0.4523    0.0000 O   0  0  0  0  0  0  0  0  0  0  0  0
   -0.6830   -1.2773    0.0000 C   0  0  0  0  0  0  0  0  0  0  0  0
    0.0315   -1.6898    0.0000 C   0  0  0  0  0  0  0  0  0  0  0  0
    0.7460   -1.2773    0.0000 C   0  0  0  0  0  0  0  0  0  0  0  0
    0.7460   -0.4523    0.0000 O   0  0  0  0  0  0  0  0  0  0  0  0
    1.4604   -1.6898    0.0000 O   0  0  0  0  0  0  0  0  0  0  0  0
    1.4604   -2.5148    0.0000 C   0  0  0  0  0  0  0  0  0  0  0  0
    0.0315   -2.5148    0.0000 C   0  0  0  0  0  0  0  0  0  0  0  0
    0.7460   -2.9273    0.0000 C   0  0  0  0  0  0  0  0  0  0  0  0
    0.7460   -3.7523    0.0000 C   0  0  0  0  0  0  0  0  0  0  0  0
    0.0315   -4.1648    0.0000 C   0  0  0  0  0  0  0  0  0  0  0  0
   -0.6830   -3.7523    0.0000 C   0  0  0  0  0  0  0  0  0  0  0  0
   -0.6830   -2.9273    0.0000 C   0  0  0  0  0  0  0  0  0  0  0  0
   -1.3974   -2.5148    0.0000 C   0  0  0  0  0  0  0  0  0  0  0  0
   -1.3974   -1.6898    0.0000 O   0  0  0  0  0  0  0  0  0  0  0  0
   -2.1119   -1.2773    0.0000 C   0  0  0  0  0  0  0  0  0  0  0  0
   -2.8264   -1.6898    0.0000 C   0  0  0  0  0  0  0  0  0  0  0  0
   -3.5408   -1.2773    0.0000 C   0  0  0  0  0  0  0  0  0  0  0  0
   -3.5408   -0.4523    0.0000 C   0  0  0  0  0  0  0  0  0  0  0  0
   -2.8264   -0.0398    0.0000 C   0  0  0  0  0  0  0  0  0  0  0  0
   -2.8264    0.7852    0.0000 C   0  0  0  0  0  0  0  0  0  0  0  0
   -2.8264    1.6102    0.0000 F   0  0  0  0  0  0  0  0  0  0  0  0
   -2.0014    0.7852    0.0000 F   0  0  0  0  0  0  0  0  0  0  0  0
   -3.6514    0.7852    0.0000 F   0  0  0  0  0  0  0  0  0  0  0  0
   -2.1119   -0.4523    0.0000 N   0  0  0  0  0  0  0  0  0  0  0  0
  1  2  1  0
  3  2  1  0
  3  4  2  3
  4  5  1  0
  5  6  2  0
  5  7  1  0
  7  8  1  0
  4  9  1  0
  9 10  2  0
 10 11  1  0
 11 12  2  0
 12 13  1  0
 13 14  2  0
  9 14  1  0
 14 15  1  0
 15 16  1  0
 16 17  1  0
 17 18  2  0
 18 19  1  0
 19 20  2  0
 20 21  1  0
 21 22  1  0
 22 23  1  0
 22 24  1  0
 22 25  1  0
 21 26  2  0
 17 26  1  0
M  END
>  <id>  (488) 
4154; 4153

>  <casrn>  (488) 
117428-22-5

>  <smiles (First)>  (488) 


>  <Molecular weight>  (488) 
367.31915283203125

>  <name>  (488) 
unnamed [117428-22-5]

>  <Outcome>  (488) 
1

>  <Molecule (RDKit Mol) (InChI Code)>  (488) 
InChI=1S/C18H16F3NO4/c1-24-11-14(17(23)25-2)13-7-4-3-6-12(13)10-26-16-9-5-8-15(22-16)18(19,20)21/h3-9,11H,10H2,1-2H3

>  <reference>  (488) 
ECHA

>  <molecule_form>  (488) 
A

>  <ID>  (488) 


>  <SMILES>  (488) 
COC=C(C(=O)OC)c1ccccc1COc1cccc(C(F)(F)F)n1

>  <ROMol>  (488) 
<rdkit.Chem.rdchem.Mol object at 0x0000027F584282E0>

$$$$

     RDKit          2D

 25 27  0  0  0  0  0  0  0  0999 V2000
    1.7329   -4.1608    0.0000 C   0  0  0  0  0  0  0  0  0  0  0  0
    1.1809   -3.5477    0.0000 N   0  0  0  0  0  0  0  0  0  0  0  0
    1.4358   -2.7631    0.0000 C   0  0  0  0  0  0  0  0  0  0  0  0
    2.2428   -2.5915    0.0000 O   0  0  0  0  0  0  0  0  0  0  0  0
    0.8838   -2.1500    0.0000 C   0  0  0  0  0  0  0  0  0  0  0  0
    0.0768   -2.3215    0.0000 C   0  0  0  0  0  0  0  0  0  0  0  0
   -0.7302   -2.4930    0.0000 N   0  0  0  0  0  0  0  0  0  0  0  0
    1.1387   -1.3654    0.0000 C   0  0  0  0  0  0  0  0  0  0  0  0
    0.6538   -0.6979    0.0000 N   0  0  0  0  0  0  0  0  0  0  0  0
    1.1387   -0.0305    0.0000 C   0  0  0  0  0  0  0  0  0  0  0  0
    0.8838    0.7541    0.0000 C   0  0  0  0  0  0  0  0  0  0  0  0
    0.0768    0.9257    0.0000 C   0  0  0  0  0  0  0  0  0  0  0  0
   -0.4752    0.3126    0.0000 O   0  0  0  0  0  0  0  0  0  0  0  0
   -0.1781    1.7103    0.0000 N   0  0  0  0  0  0  0  0  0  0  0  0
    0.3739    2.3234    0.0000 C   0  0  0  0  0  0  0  0  0  0  0  0
    0.1190    3.1080    0.0000 O   0  0  0  0  0  0  0  0  0  0  0  0
    1.1809    2.1519    0.0000 N   0  0  0  0  0  0  0  0  0  0  0  0
    1.4358    1.3672    0.0000 C   0  0  0  0  0  0  0  0  0  0  0  0
    2.2428    1.1957    0.0000 O   0  0  0  0  0  0  0  0  0  0  0  0
    1.9233   -0.2854    0.0000 C   0  0  0  0  0  0  0  0  0  0  0  0
    2.6378    0.1271    0.0000 C   0  0  0  0  0  0  0  0  0  0  0  0
    3.3523   -0.2854    0.0000 C   0  0  0  0  0  0  0  0  0  0  0  0
    3.3523   -1.1104    0.0000 C   0  0  0  0  0  0  0  0  0  0  0  0
    2.6378   -1.5229    0.0000 C   0  0  0  0  0  0  0  0  0  0  0  0
    1.9233   -1.1104    0.0000 C   0  0  0  0  0  0  0  0  0  0  0  0
  1  2  1  0
  2  3  1  0
  3  4  2  0
  5  3  1  0
  5  6  1  0
  6  7  3  0
  5  8  2  3
  8  9  1  0
 10  9  1  4
 10 11  2  3
 11 12  1  0
 12 13  2  0
 12 14  1  0
 14 15  1  0
 15 16  2  0
 15 17  1  0
 17 18  1  0
 11 18  1  0
 18 19  2  0
 10 20  1  0
 20 21  2  0
 21 22  1  0
 22 23  2  0
 23 24  1  0
 24 25  2  0
  8 25  1  0
 20 25  1  0
M  END
>  <id>  (489) 
1447

>  <casrn>  (489) 
76199-85-4

>  <smiles (First)>  (489) 


>  <Molecular weight>  (489) 
337.2896423339844

>  <name>  (489) 
2-cyano-N-methyl-2-[(1E)-3-(2,4,6-trioxo-1,3-diazinan-5-ylidene)-2,3-dihydro-1H-isoindol-1-ylidene]acetamide

>  <Outcome>  (489) 
0

>  <Molecule (RDKit Mol) (InChI Code)>  (489) 
InChI=1S/C16H11N5O4/c1-18-13(22)9(6-17)11-7-4-2-3-5-8(7)12(19-11)10-14(23)20-16(25)21-15(10)24/h2-5,19H,1H3,(H,18,22)(H2,20,21,23,24,25)

>  <reference>  (489) 
ECHA

>  <molecule_form>  (489) 
A

>  <ID>  (489) 


>  <SMILES>  (489) 
CNC(=O)C(C#N)=c1[nH]c(=C2C(=O)NC(=O)NC2=O)c2ccccc12

>  <ROMol>  (489) 
<rdkit.Chem.rdchem.Mol object at 0x0000027F584DEC80>

$$$$

     RDKit          2D

  7  6  0  0  0  0  0  0  0  0999 V2000
    3.2130   -0.7702    0.0000 C   0  0  0  0  0  0  0  0  0  0  0  0
    2.8005   -0.0557    0.0000 O   0  0  0  0  0  0  0  0  0  0  0  0
    1.9755   -0.0557    0.0000 C   0  0  0  0  0  0  0  0  0  0  0  0
    1.5630    0.6587    0.0000 O   0  0  0  0  0  0  0  0  0  0  0  0
    0.7380    0.6587    0.0000 C   0  0  0  0  0  0  0  0  0  0  0  0
    1.5630   -0.7702    0.0000 O   0  0  0  0  0  0  0  0  0  0  0  0
    0.7380   -0.7702    0.0000 C   0  0  0  0  0  0  0  0  0  0  0  0
  1  2  1  0
  2  3  1  0
  3  4  1  0
  4  5  1  0
  3  6  1  0
  6  7  1  0
M  END
>  <id>  (490) 
238606

>  <casrn>  (490) 
149-73-5

>  <smiles (First)>  (490) 
COC(OC)OC

>  <Molecular weight>  (490) 
106.12039947509766

>  <name>  (490) 
Trimethoxymethane

>  <Outcome>  (490) 
0

>  <Molecule (RDKit Mol) (InChI Code)>  (490) 
InChI=1S/C4H10O3/c1-5-4(6-2)7-3/h4H,1-3H3

>  <reference>  (490) 
ToxValDB

>  <molecule_form>  (490) 
not specified

>  <ID>  (490) 


>  <SMILES>  (490) 
COC(OC)OC

>  <ROMol>  (490) 
<rdkit.Chem.rdchem.Mol object at 0x0000027F62462120>

$$$$

     RDKit          2D

  7  7  0  0  0  0  0  0  0  0999 V2000
    0.8559    1.3617    0.0000 C   0  0  0  0  0  0  0  0  0  0  0  0
    1.5992    1.0038    0.0000 C   0  0  0  0  0  0  0  0  0  0  0  0
    1.7827    0.1995    0.0000 C   0  0  0  0  0  0  0  0  0  0  0  0
    1.2684   -0.4456    0.0000 C   0  0  0  0  0  0  0  0  0  0  0  0
    0.4434   -0.4456    0.0000 N   0  0  0  0  0  0  0  0  0  0  0  0
   -0.0710    0.1995    0.0000 C   0  0  0  0  0  0  0  0  0  0  0  0
    0.1126    1.0038    0.0000 C   0  0  0  0  0  0  0  0  0  0  0  0
  1  2  1  0
  2  3  1  0
  3  4  1  0
  4  5  1  0
  5  6  1  0
  6  7  1  0
  1  7  1  0
M  END
>  <id>  (491) 
2605

>  <casrn>  (491) 
111-49-9

>  <smiles (First)>  (491) 


>  <Molecular weight>  (491) 
99.17411804199219

>  <name>  (491) 
azepane

>  <Outcome>  (491) 
1

>  <Molecule (RDKit Mol) (InChI Code)>  (491) 
InChI=1S/C6H13N/c1-2-4-6-7-5-3-1/h7H,1-6H2

>  <reference>  (491) 
ECHA

>  <molecule_form>  (491) 
V

>  <ID>  (491) 


>  <SMILES>  (491) 
C1CCCNCC1

>  <ROMol>  (491) 
<rdkit.Chem.rdchem.Mol object at 0x0000027F584AC580>

$$$$

     RDKit          2D

 10 10  0  0  0  0  0  0  0  0999 V2000
    0.0086    2.5852    0.0000 N   0  0  0  0  0  0  0  0  0  0  0  0
    0.7231    2.1727    0.0000 C   0  0  0  0  0  0  0  0  0  0  0  0
    1.4375    2.5852    0.0000 O   0  0  0  0  0  0  0  0  0  0  0  0
    0.7231    1.3477    0.0000 C   0  0  0  0  0  0  0  0  0  0  0  0
    1.4375    0.9352    0.0000 C   0  0  0  0  0  0  0  0  0  0  0  0
    1.4375    0.1102    0.0000 C   0  0  0  0  0  0  0  0  0  0  0  0
    0.7231   -0.3023    0.0000 C   0  0  0  0  0  0  0  0  0  0  0  0
    0.0086    0.1102    0.0000 C   0  0  0  0  0  0  0  0  0  0  0  0
    0.0086    0.9352    0.0000 C   0  0  0  0  0  0  0  0  0  0  0  0
   -0.7059    1.3477    0.0000 N   0  0  0  0  0  0  0  0  0  0  0  0
  1  2  1  0
  2  3  2  0
  2  4  1  0
  4  5  2  0
  5  6  1  0
  6  7  2  0
  7  8  1  0
  8  9  2  0
  4  9  1  0
  9 10  1  0
M  END
>  <id>  (492) 
1415; 1416

>  <casrn>  (492) 
88-68-6

>  <smiles (First)>  (492) 


>  <Molecular weight>  (492) 
136.15121459960938

>  <name>  (492) 
2-aminobenzamide

>  <Outcome>  (492) 
0

>  <Molecule (RDKit Mol) (InChI Code)>  (492) 
InChI=1S/C7H8N2O/c8-6-4-2-1-3-5(6)7(9)10/h1-4H,8H2,(H2,9,10)

>  <reference>  (492) 
ECHA

>  <molecule_form>  (492) 
A

>  <ID>  (492) 


>  <SMILES>  (492) 
NC(=O)c1ccccc1N

>  <ROMol>  (492) 
<rdkit.Chem.rdchem.Mol object at 0x0000027F5846ED60>

$$$$

     RDKit          2D

 13 12  0  0  0  0  0  0  0  0999 V2000
    2.7901    1.8251    0.0000 C   0  0  0  0  0  0  0  0  0  0  0  0
    2.0756    1.4126    0.0000 C   0  0  0  0  0  0  0  0  0  0  0  0
    1.3612    1.8251    0.0000 O   0  0  0  0  0  0  0  0  0  0  0  0
    0.6467    1.4126    0.0000 Si  0  0  0  0  0  4  0  0  0  0  0  0
   -0.0678    1.0001    0.0000 O   0  0  0  0  0  0  0  0  0  0  0  0
   -0.7822    1.4126    0.0000 C   0  0  0  0  0  0  0  0  0  0  0  0
   -1.4967    1.0001    0.0000 C   0  0  0  0  0  0  0  0  0  0  0  0
    0.2342    2.1271    0.0000 O   0  0  0  0  0  0  0  0  0  0  0  0
   -0.5908    2.1271    0.0000 C   0  0  0  0  0  0  0  0  0  0  0  0
   -1.0033    2.8416    0.0000 C   0  0  0  0  0  0  0  0  0  0  0  0
    1.0592    0.6982    0.0000 O   0  0  0  0  0  0  0  0  0  0  0  0
    0.6467   -0.0163    0.0000 C   0  0  0  0  0  0  0  0  0  0  0  0
   -0.1783   -0.0163    0.0000 C   0  0  0  0  0  0  0  0  0  0  0  0
  1  2  1  0
  2  3  1  0
  3  4  1  0
  4  5  1  0
  5  6  1  0
  6  7  1  0
  4  8  1  0
  8  9  1  0
  9 10  1  0
  4 11  1  0
 11 12  1  0
 12 13  1  0
M  END
>  <id>  (493) 
3971; 3972

>  <casrn>  (493) 
78-10-4

>  <smiles (First)>  (493) 


>  <Molecular weight>  (493) 
208.32749938964844

>  <name>  (493) 
tetraethyl silicate

>  <Outcome>  (493) 
0

>  <Molecule (RDKit Mol) (InChI Code)>  (493) 
InChI=1S/C8H20O4Si/c1-5-9-13(10-6-2,11-7-3)12-8-4/h5-8H2,1-4H3

>  <reference>  (493) 
ECHA

>  <molecule_form>  (493) 
A

>  <ID>  (493) 


>  <SMILES>  (493) 
CCO[Si](OCC)(OCC)OCC

>  <ROMol>  (493) 
<rdkit.Chem.rdchem.Mol object at 0x0000027F584ACDD0>

$$$$

     RDKit          2D

 19 20  0  0  0  0  0  0  0  0999 V2000
    0.7511    0.4095    0.0000 O   0  0  0  0  0  0  0  0  0  0  0  0
    1.4656   -0.0030    0.0000 C   0  0  0  0  0  0  0  0  0  0  0  0
    2.1801   -0.4155    0.0000 N   0  0  0  0  0  0  0  0  0  0  0  0
    2.1801   -1.2405    0.0000 C   0  0  0  0  0  0  0  0  0  0  0  0
    2.8945   -1.6530    0.0000 C   0  0  0  0  0  0  0  0  0  0  0  0
    2.8945   -2.4780    0.0000 C   0  0  0  0  0  0  0  0  0  0  0  0
    2.1801   -2.8905    0.0000 C   0  0  0  0  0  0  0  0  0  0  0  0
    2.1801   -3.7155    0.0000 C   0  0  0  0  0  0  0  0  0  0  0  0
    1.4656   -4.1280    0.0000 C   0  0  0  0  0  0  0  0  0  0  0  0
    1.4656   -4.9530    0.0000 C   0  0  0  0  0  0  0  0  0  0  0  0
    0.7511   -5.3655    0.0000 C   0  0  0  0  0  0  0  0  0  0  0  0
    0.0366   -4.9530    0.0000 C   0  0  0  0  0  0  0  0  0  0  0  0
   -0.6778   -5.3655    0.0000 N   0  0  0  0  0  0  0  0  0  0  0  0
   -0.6778   -6.1905    0.0000 C   0  0  0  0  0  0  0  0  0  0  0  0
   -0.6778   -7.0155    0.0000 O   0  0  0  0  0  0  0  0  0  0  0  0
    0.0366   -4.1280    0.0000 C   0  0  0  0  0  0  0  0  0  0  0  0
    0.7511   -3.7155    0.0000 C   0  0  0  0  0  0  0  0  0  0  0  0
    1.4656   -2.4780    0.0000 C   0  0  0  0  0  0  0  0  0  0  0  0
    1.4656   -1.6530    0.0000 C   0  0  0  0  0  0  0  0  0  0  0  0
  1  2  2  0
  2  3  2  0
  3  4  1  0
  4  5  1  0
  5  6  1  0
  6  7  1  0
  7  8  1  0
  8  9  1  0
  9 10  1  0
 10 11  1  0
 11 12  1  0
 12 13  1  0
 13 14  2  0
 14 15  2  0
 12 16  1  0
 16 17  1  0
  9 17  1  0
  7 18  1  0
 18 19  1  0
  4 19  1  0
M  END
>  <id>  (494) 
1175; 1176; 1177

>  <casrn>  (494) 
5124-30-1

>  <smiles (First)>  (494) 


>  <Molecular weight>  (494) 
262.3473815917969

>  <name>  (494) 
1-isocyanato-4-[(4-isocyanatocyclohexyl)methyl]cyclohexane

>  <Outcome>  (494) 
1

>  <Molecule (RDKit Mol) (InChI Code)>  (494) 
InChI=1S/C15H22N2O2/c18-10-16-14-5-1-12(2-6-14)9-13-3-7-15(8-4-13)17-11-19/h12-15H,1-9H2

>  <reference>  (494) 
ECHA

>  <molecule_form>  (494) 
A

>  <ID>  (494) 


>  <SMILES>  (494) 
O=C=NC1CCC(CC2CCC(N=C=O)CC2)CC1

>  <ROMol>  (494) 
<rdkit.Chem.rdchem.Mol object at 0x0000027F624DDCF0>

$$$$

     RDKit          2D

  8  7  0  0  0  0  0  0  0  0999 V2000
    0.4125   -1.2375    0.0000 F   0  0  0  0  0  0  0  0  0  0  0  0
    0.4125   -0.4125    0.0000 C   0  0  0  0  0  0  0  0  0  0  0  0
    1.2375   -0.4125    0.0000 F   0  0  0  0  0  0  0  0  0  0  0  0
   -0.4125   -0.4125    0.0000 F   0  0  0  0  0  0  0  0  0  0  0  0
    0.4125    0.4125    0.0000 C   0  0  0  0  0  0  0  0  0  0  0  0
    0.4125    1.2375    0.0000 Cl  0  0  0  0  0  0  0  0  0  0  0  0
    1.2375    0.4125    0.0000 Cl  0  0  0  0  0  0  0  0  0  0  0  0
   -0.4125    0.4125    0.0000 Cl  0  0  0  0  0  0  0  0  0  0  0  0
  1  2  1  0
  2  3  1  0
  2  4  1  0
  2  5  1  0
  5  6  1  0
  5  7  1  0
  5  8  1  0
M  END
>  <id>  (495) 
259429

>  <casrn>  (495) 
354-58-5

>  <smiles (First)>  (495) 
FC(F)(F)C(Cl)(Cl)Cl

>  <Molecular weight>  (495) 
187.3756103515625

>  <name>  (495) 
1,1,1-Trichloro-2,2,2-trifluoroethane

>  <Outcome>  (495) 
0

>  <Molecule (RDKit Mol) (InChI Code)>  (495) 
InChI=1S/C2Cl3F3/c3-1(4,5)2(6,7)8

>  <reference>  (495) 
ToxValDB

>  <molecule_form>  (495) 
not specified

>  <ID>  (495) 


>  <SMILES>  (495) 
FC(F)(F)C(Cl)(Cl)Cl

>  <ROMol>  (495) 
<rdkit.Chem.rdchem.Mol object at 0x0000027F585E3660>

$$$$

     RDKit          2D

 12 11  0  0  0  0  0  0  0  0999 V2000
   -2.6298    0.2340    0.0000 C   0  0  0  0  0  0  0  0  0  0  0  0
   -1.9153    0.6465    0.0000 C   0  0  0  0  0  0  0  0  0  0  0  0
   -1.5028   -0.0679    0.0000 C   0  0  0  0  0  0  0  0  0  0  0  0
   -2.3278    1.3610    0.0000 C   0  0  0  0  0  0  0  0  0  0  0  0
   -1.2009    1.0590    0.0000 C   0  0  0  0  0  0  0  0  0  0  0  0
   -0.4864    0.6465    0.0000 C   0  0  0  0  0  0  0  0  0  0  0  0
    0.2281    1.0590    0.0000 C   0  0  0  0  0  0  0  0  0  0  0  0
    0.9426    0.6465    0.0000 C   0  0  0  0  0  0  0  0  0  0  0  0
    1.6570    1.0590    0.0000 C   0  0  0  0  0  0  0  0  0  0  0  0
    2.3715    0.6465    0.0000 C   0  0  0  0  0  0  0  0  0  0  0  0
    3.0860    1.0590    0.0000 O   0  0  0  0  0  0  0  0  0  0  0  0
    2.3715   -0.1785    0.0000 Cl  0  0  0  0  0  0  0  0  0  0  0  0
  1  2  1  0
  2  3  1  0
  2  4  1  0
  2  5  1  0
  5  6  1  0
  6  7  1  0
  7  8  1  0
  8  9  1  0
  9 10  1  0
 10 11  2  0
 10 12  1  0
M  END
>  <id>  (496) 
1298; 1299

>  <casrn>  (496) 
40292-82-8

>  <smiles (First)>  (496) 


>  <Molecular weight>  (496) 
190.71026611328125

>  <name>  (496) 
2,5,5-trimethylheptanoyl chloride

>  <Outcome>  (496) 
1

>  <Molecule (RDKit Mol) (InChI Code)>  (496) 
InChI=1S/C10H19ClO/c1-10(2,3)8-6-4-5-7-9(11)12/h4-8H2,1-3H3

>  <reference>  (496) 
ECHA

>  <molecule_form>  (496) 
V

>  <ID>  (496) 


>  <SMILES>  (496) 
CC(C)(C)CCCCCC(=O)Cl

>  <ROMol>  (496) 
<rdkit.Chem.rdchem.Mol object at 0x0000027F584D5B30>

$$$$

     RDKit          2D

  6  5  0  0  0  0  0  0  0  0999 V2000
    2.4550   -1.4060    0.0000 C   0  0  0  0  0  0  0  0  0  0  0  0
    2.0425   -0.6915    0.0000 N   0  0  0  0  0  0  0  0  0  0  0  0
    2.4550    0.0229    0.0000 C   0  0  0  0  0  0  0  0  0  0  0  0
    1.2175   -0.6915    0.0000 C   0  0  0  0  0  0  0  0  0  0  0  0
    0.8050    0.0229    0.0000 C   0  0  0  0  0  0  0  0  0  0  0  0
   -0.0200    0.0229    0.0000 O   0  0  0  0  0  0  0  0  0  0  0  0
  1  2  1  0
  2  3  1  0
  2  4  1  0
  4  5  1  0
  5  6  1  0
M  END
>  <id>  (497) 
1339

>  <casrn>  (497) 
108-01-0

>  <smiles (First)>  (497) 


>  <Molecular weight>  (497) 
89.13623809814453

>  <name>  (497) 
2-(dimethylamino)ethan-1-ol

>  <Outcome>  (497) 
1

>  <Molecule (RDKit Mol) (InChI Code)>  (497) 
InChI=1S/C4H11NO/c1-5(2)3-4-6/h6H,3-4H2,1-2H3

>  <reference>  (497) 
ECHA

>  <molecule_form>  (497) 
V

>  <ID>  (497) 


>  <SMILES>  (497) 
CN(C)CCO

>  <ROMol>  (497) 
<rdkit.Chem.rdchem.Mol object at 0x0000027F5C149F90>

$$$$

     RDKit          2D

  5  4  0  0  0  0  0  0  0  0999 V2000
    0.8250   -0.8250    0.0000 C   0  0  0  0  0  0  0  0  0  0  0  0
    0.8250    0.0000    0.0000 C   0  0  0  0  0  0  0  0  0  0  0  0
    0.8250    0.8250    0.0000 F   0  0  0  0  0  0  0  0  0  0  0  0
    1.6500   -0.0000    0.0000 F   0  0  0  0  0  0  0  0  0  0  0  0
    0.0000    0.0000    0.0000 Cl  0  0  0  0  0  0  0  0  0  0  0  0
  1  2  1  0
  2  3  1  0
  2  4  1  0
  2  5  1  0
M  END
>  <id>  (498) 
1124

>  <casrn>  (498) 
75-68-3

>  <smiles (First)>  (498) 


>  <Molecular weight>  (498) 
100.49502563476562

>  <name>  (498) 
1-chloro-1,1-difluoroethane

>  <Outcome>  (498) 
0

>  <Molecule (RDKit Mol) (InChI Code)>  (498) 
InChI=1S/C2H3ClF2/c1-2(3,4)5/h1H3

>  <reference>  (498) 
ECHA

>  <molecule_form>  (498) 
G

>  <ID>  (498) 


>  <SMILES>  (498) 
CC(F)(F)Cl

>  <ROMol>  (498) 
<rdkit.Chem.rdchem.Mol object at 0x0000027F5842F820>

$$$$

     RDKit          2D

  9  8  0  0  0  0  0  0  0  0999 V2000
    2.9980    2.5587    0.0000 N   0  0  0  0  0  0  0  0  0  0  0  0
    3.7125    2.1462    0.0000 C   0  0  0  0  0  0  0  0  0  0  0  0
    4.4270    2.5587    0.0000 C   0  0  0  0  0  0  0  0  0  0  0  0
    5.1414    2.1462    0.0000 C   0  0  0  0  0  0  0  0  0  0  0  0
    5.8559    2.5587    0.0000 N   0  0  0  0  0  0  0  0  0  0  0  0
    6.5704    2.1462    0.0000 C   0  0  0  0  0  0  0  0  0  0  0  0
    7.2849    2.5587    0.0000 C   0  0  0  0  0  0  0  0  0  0  0  0
    7.9993    2.1462    0.0000 C   0  0  0  0  0  0  0  0  0  0  0  0
    8.7138    2.5587    0.0000 N   0  0  0  0  0  0  0  0  0  0  0  0
  1  2  1  0
  2  3  1  0
  3  4  1  0
  4  5  1  0
  5  6  1  0
  6  7  1  0
  7  8  1  0
  8  9  1  0
M  END
>  <id>  (499) 
2655

>  <casrn>  (499) 
56-18-8

>  <smiles (First)>  (499) 


>  <Molecular weight>  (499) 
131.2192840576172

>  <name>  (499) 
bis(3-aminopropyl)amine

>  <Outcome>  (499) 
1

>  <Molecule (RDKit Mol) (InChI Code)>  (499) 
InChI=1S/C6H17N3/c7-3-1-5-9-6-2-4-8/h9H,1-8H2

>  <reference>  (499) 
ECHA

>  <molecule_form>  (499) 
A

>  <ID>  (499) 


>  <SMILES>  (499) 
NCCCNCCCN

>  <ROMol>  (499) 
<rdkit.Chem.rdchem.Mol object at 0x0000027F624B1900>

$$$$

     RDKit          2D

  9  8  0  0  0  0  0  0  0  0999 V2000
    2.9980    2.5571    0.0000 C   0  0  0  0  0  0  0  0  0  0  0  0
    3.7125    2.1446    0.0000 C   0  0  0  0  0  0  0  0  0  0  0  0
    4.4270    2.5571    0.0000 C   0  0  0  0  0  0  0  0  0  0  0  0
    5.1414    2.1446    0.0000 C   0  0  0  0  0  0  0  0  0  0  0  0
    5.8559    2.5571    0.0000 C   0  0  0  0  0  0  0  0  0  0  0  0
    6.5704    2.1446    0.0000 C   0  0  0  0  0  0  0  0  0  0  0  0
    7.2849    2.5571    0.0000 C   0  0  0  0  0  0  0  0  0  0  0  0
    7.9993    2.1446    0.0000 C   0  0  0  0  0  0  0  0  0  0  0  0
    8.7138    2.5571    0.0000 C   0  0  0  0  0  0  0  0  0  0  0  0
  1  2  1  0
  2  3  1  0
  3  4  1  0
  4  5  1  0
  5  6  1  0
  6  7  1  0
  7  8  1  0
  8  9  1  0
M  END
>  <id>  (500) 
3532

>  <casrn>  (500) 
111-84-2

>  <smiles (First)>  (500) 


>  <Molecular weight>  (500) 
128.25509643554688

>  <name>  (500) 
nonane

>  <Outcome>  (500) 
1

>  <Molecule (RDKit Mol) (InChI Code)>  (500) 
InChI=1S/C9H20/c1-3-5-7-9-8-6-4-2/h3-9H2,1-2H3

>  <reference>  (500) 
ECHA

>  <molecule_form>  (500) 
V

>  <ID>  (500) 


>  <SMILES>  (500) 
CCCCCCCCC

>  <ROMol>  (500) 
<rdkit.Chem.rdchem.Mol object at 0x0000027F6246B740>

$$$$

     RDKit          2D

 18 19  0  0  0  0  0  0  0  0999 V2000
   -0.0518   -1.5966    0.0000 C   0  0  0  0  0  0  0  0  0  0  0  0
    0.6627   -1.1841    0.0000 C   0  0  0  0  0  0  0  0  0  0  0  0
    1.3772   -1.5966    0.0000 C   0  0  0  0  0  0  0  0  0  0  0  0
    1.3772   -2.4216    0.0000 C   0  0  0  0  0  0  0  0  0  0  0  0
    2.2022   -2.4216    0.0000 C   0  0  0  0  0  0  0  0  0  0  0  0
    0.5522   -2.4216    0.0000 C   0  0  0  0  0  0  0  0  0  0  0  0
    1.3772   -3.2466    0.0000 C   0  0  0  0  0  0  0  0  0  0  0  0
    2.0916   -3.6591    0.0000 C   0  0  0  0  0  0  0  0  0  0  0  0
    2.0916   -4.4841    0.0000 C   0  0  0  0  0  0  0  0  0  0  0  0
    1.3772   -4.8966    0.0000 C   0  0  0  0  0  0  0  0  0  0  0  0
    0.6627   -4.4841    0.0000 C   0  0  0  0  0  0  0  0  0  0  0  0
    0.6627   -3.6591    0.0000 C   0  0  0  0  0  0  0  0  0  0  0  0
    0.6627   -0.3591    0.0000 C   0  0  0  0  0  0  0  0  0  0  0  0
   -0.0518    0.0534    0.0000 C   0  0  0  0  0  0  0  0  0  0  0  0
   -0.0518    0.8784    0.0000 C   0  0  0  0  0  0  0  0  0  0  0  0
    0.6627    1.2909    0.0000 C   0  0  0  0  0  0  0  0  0  0  0  0
    1.3772    0.8784    0.0000 C   0  0  0  0  0  0  0  0  0  0  0  0
    1.3772    0.0534    0.0000 C   0  0  0  0  0  0  0  0  0  0  0  0
  1  2  2  0
  2  3  1  0
  3  4  1  0
  4  5  1  0
  4  6  1  0
  4  7  1  0
  7  8  2  0
  8  9  1  0
  9 10  2  0
 10 11  1  0
 11 12  2  0
  7 12  1  0
  2 13  1  0
 13 14  2  0
 14 15  1  0
 15 16  2  0
 16 17  1  0
 17 18  2  0
 13 18  1  0
M  END
>  <id>  (501) 
203

>  <casrn>  (501) 
6362-80-7

>  <smiles (First)>  (501) 


>  <Molecular weight>  (501) 
236.35140991210938

>  <name>  (501) 
(4-methyl-4-phenylpent-1-en-2-yl)benzene

>  <Outcome>  (501) 
0

>  <Molecule (RDKit Mol) (InChI Code)>  (501) 
InChI=1S/C18H20/c1-15(16-10-6-4-7-11-16)14-18(2,3)17-12-8-5-9-13-17/h4-13H,1,14H2,2-3H3

>  <reference>  (501) 
ECHA

>  <molecule_form>  (501) 
A

>  <ID>  (501) 


>  <SMILES>  (501) 
C=C(CC(C)(C)c1ccccc1)c1ccccc1

>  <ROMol>  (501) 
<rdkit.Chem.rdchem.Mol object at 0x0000027F78E37200>

$$$$

     RDKit          2D

  9  8  0  0  0  0  0  0  0  0999 V2000
    2.9980    2.5585    0.0000 C   0  0  0  0  0  0  0  0  0  0  0  0
    3.7125    2.1460    0.0000 C   0  0  0  0  0  0  0  0  0  0  0  0
    4.4270    2.5585    0.0000 C   0  0  0  0  0  0  0  0  0  0  0  0
    5.1414    2.1460    0.0000 C   0  0  0  0  0  0  0  0  0  0  0  0
    5.8559    2.5585    0.0000 N   0  0  0  0  0  0  0  0  0  0  0  0
    6.5704    2.1460    0.0000 C   0  0  0  0  0  0  0  0  0  0  0  0
    7.2849    2.5585    0.0000 C   0  0  0  0  0  0  0  0  0  0  0  0
    7.9993    2.1460    0.0000 C   0  0  0  0  0  0  0  0  0  0  0  0
    8.7138    2.5585    0.0000 C   0  0  0  0  0  0  0  0  0  0  0  0
  1  2  1  0
  2  3  1  0
  3  4  1  0
  4  5  1  0
  5  6  1  0
  6  7  1  0
  7  8  1  0
  8  9  1  0
M  END
>  <id>  (502) 
2408; 2407

>  <casrn>  (502) 
111-92-2

>  <smiles (First)>  (502) 


>  <Molecular weight>  (502) 
129.2431640625

>  <name>  (502) 
N-butylbutan-1-amine

>  <Outcome>  (502) 
1

>  <Molecule (RDKit Mol) (InChI Code)>  (502) 
InChI=1S/C8H19N/c1-3-5-7-9-8-6-4-2/h9H,3-8H2,1-2H3

>  <reference>  (502) 
ECHA

>  <molecule_form>  (502) 
V

>  <ID>  (502) 


>  <SMILES>  (502) 
CCCCNCCCC

>  <ROMol>  (502) 
<rdkit.Chem.rdchem.Mol object at 0x0000027F58419F90>

$$$$

     RDKit          2D

  9  8  0  0  0  0  0  0  0  0999 V2000
    3.3903    0.3007    0.0000 C   0  0  0  0  0  0  0  0  0  0  0  0
    2.6758    0.7132    0.0000 C   0  0  0  0  0  0  0  0  0  0  0  0
    1.9613    0.3007    0.0000 C   0  0  0  0  0  0  0  0  0  0  0  0
    1.2468    0.7132    0.0000 P   0  0  0  0  0  0  0  0  0  0  0  0
    1.6593    1.4276    0.0000 O   0  0  0  0  0  0  0  0  0  0  0  0
    0.5324    1.1257    0.0000 O   0  0  0  0  0  0  0  0  0  0  0  0
   -0.1821    0.7132    0.0000 C   0  0  0  0  0  0  0  0  0  0  0  0
    0.8343   -0.0013    0.0000 O   0  0  0  0  0  0  0  0  0  0  0  0
    0.0093   -0.0013    0.0000 C   0  0  0  0  0  0  0  0  0  0  0  0
  1  2  1  0
  2  3  1  0
  3  4  1  0
  4  5  2  0
  4  6  1  0
  6  7  1  0
  4  8  1  0
  8  9  1  0
M  END
>  <id>  (503) 
3002

>  <casrn>  (503) 
18755-43-6

>  <smiles (First)>  (503) 


>  <Molecular weight>  (503) 
152.12867736816406

>  <name>  (503) 
dimethyl propylphosphonate

>  <Outcome>  (503) 
0

>  <Molecule (RDKit Mol) (InChI Code)>  (503) 
InChI=1S/C5H13O3P/c1-4-5-9(6,7-2)8-3/h4-5H2,1-3H3

>  <reference>  (503) 
ECHA

>  <molecule_form>  (503) 
A

>  <ID>  (503) 


>  <SMILES>  (503) 
CCCP(=O)(OC)OC

>  <ROMol>  (503) 
<rdkit.Chem.rdchem.Mol object at 0x0000027F78E2CA50>

$$$$

     RDKit          2D

 11 11  0  0  0  0  0  0  0  0999 V2000
   -0.7129    3.7135    0.0000 O   0  0  0  0  0  0  0  0  0  0  0  0
    0.0016    3.3010    0.0000 C   0  0  0  0  0  0  0  0  0  0  0  0
    0.7161    3.7135    0.0000 O   0  0  0  0  0  0  0  0  0  0  0  0
    0.0016    2.4760    0.0000 C   0  0  0  0  0  0  0  0  0  0  0  0
    0.7161    2.0635    0.0000 O   0  0  0  0  0  0  0  0  0  0  0  0
    0.7161    1.2385    0.0000 C   0  0  0  0  0  0  0  0  0  0  0  0
    1.4305    0.8260    0.0000 C   0  0  0  0  0  0  0  0  0  0  0  0
    1.4305    0.0010    0.0000 C   0  0  0  0  0  0  0  0  0  0  0  0
    0.7161   -0.4115    0.0000 C   0  0  0  0  0  0  0  0  0  0  0  0
    0.0016    0.0010    0.0000 C   0  0  0  0  0  0  0  0  0  0  0  0
    0.0016    0.8260    0.0000 C   0  0  0  0  0  0  0  0  0  0  0  0
  1  2  2  0
  2  3  1  0
  2  4  1  0
  4  5  1  0
  5  6  1  0
  6  7  2  0
  7  8  1  0
  8  9  2  0
  9 10  1  0
 10 11  2  0
  6 11  1  0
M  END
>  <id>  (504) 
3850

>  <casrn>  (504) 
3598-16-1

>  <smiles (First)>  (504) 


>  <Molecular weight>  (504) 
151.13938903808594

>  <name>  (504) 
sodium 2-phenoxyacetate

>  <Outcome>  (504) 
0

>  <Molecule (RDKit Mol) (InChI Code)>  (504) 
InChI=1S/C8H8O3/c9-8(10)6-11-7-4-2-1-3-5-7/h1-5H,6H2,(H,9,10)

>  <reference>  (504) 
ECHA

>  <molecule_form>  (504) 
A

>  <ID>  (504) 


>  <SMILES>  (504) 
O=C(O)COc1ccccc1

>  <ROMol>  (504) 
<rdkit.Chem.rdchem.Mol object at 0x0000027F58408430>

$$$$

     RDKit          2D

  8  7  0  0  0  0  0  0  0  0999 V2000
    1.0461    1.4303    0.0000 C   0  0  0  0  0  0  0  0  0  0  0  0
    1.7606    1.8428    0.0000 C   0  0  0  0  0  0  0  0  0  0  0  0
    2.4750    1.4303    0.0000 C   0  0  0  0  0  0  0  0  0  0  0  0
    3.1895    1.8428    0.0000 C   0  0  0  0  0  0  0  0  0  0  0  0
    3.9040    1.4303    0.0000 C   0  0  0  0  0  0  0  0  0  0  0  0
    4.6184    1.8428    0.0000 C   0  0  0  0  0  0  0  0  0  0  0  0
    5.3329    1.4303    0.0000 C   0  0  0  0  0  0  0  0  0  0  0  0
    6.0474    1.8428    0.0000 C   0  0  0  0  0  0  0  0  0  0  0  0
  1  2  2  0
  2  3  1  0
  3  4  1  0
  4  5  1  0
  5  6  1  0
  6  7  1  0
  7  8  1  0
M  END
>  <id>  (505) 
3557; 3562; 3558; 3546; 3548; 3547; 3540; 3561; 3563; 3553; 3541; 3552; 3542

>  <casrn>  (505) 
111-66-0

>  <smiles (First)>  (505) 


>  <Molecular weight>  (505) 
112.212646484375

>  <name>  (505) 
oct-1-ene

>  <Outcome>  (505) 
0

>  <Molecule (RDKit Mol) (InChI Code)>  (505) 
InChI=1S/C8H16/c1-3-5-7-8-6-4-2/h3H,1,4-8H2,2H3

>  <reference>  (505) 
ECHA

>  <molecule_form>  (505) 
V

>  <ID>  (505) 


>  <SMILES>  (505) 
C=CCCCCCC

>  <ROMol>  (505) 
<rdkit.Chem.rdchem.Mol object at 0x0000027F624DD4A0>

$$$$

     RDKit          2D

  6  5  0  0  0  0  0  0  0  0999 V2000
    2.4734   -1.4317    0.0000 C   0  0  0  0  0  0  0  0  0  0  0  0
    2.0609   -0.7172    0.0000 O   0  0  0  0  0  0  0  0  0  0  0  0
    1.2359   -0.7172    0.0000 C   0  0  0  0  0  0  0  0  0  0  0  0
    0.8234   -1.4317    0.0000 O   0  0  0  0  0  0  0  0  0  0  0  0
    0.8234   -0.0028    0.0000 C   0  0  0  0  0  0  0  0  0  0  0  0
   -0.0016   -0.0028    0.0000 Cl  0  0  0  0  0  0  0  0  0  0  0  0
  1  2  1  0
  2  3  1  0
  3  4  2  0
  3  5  1  0
  5  6  1  0
M  END
>  <id>  (506) 
3447

>  <casrn>  (506) 
96-34-4

>  <smiles (First)>  (506) 


>  <Molecular weight>  (506) 
108.52359771728516

>  <name>  (506) 
methyl 2-chloroacetate

>  <Outcome>  (506) 
1

>  <Molecule (RDKit Mol) (InChI Code)>  (506) 
InChI=1S/C3H5ClO2/c1-6-3(5)2-4/h2H2,1H3

>  <reference>  (506) 
ECHA

>  <molecule_form>  (506) 
V

>  <ID>  (506) 


>  <SMILES>  (506) 
COC(=O)CCl

>  <ROMol>  (506) 
<rdkit.Chem.rdchem.Mol object at 0x0000027F5846E5F0>

$$$$

     RDKit          2D

  9  8  0  0  0  0  0  0  0  0999 V2000
    0.1080   -2.0611    0.0000 O   0  0  0  0  0  0  0  0  0  0  0  0
    0.8224   -1.6486    0.0000 C   0  0  0  0  0  0  0  0  0  0  0  0
    0.8224   -0.8236    0.0000 C   0  0  0  0  0  0  0  0  0  0  0  0
    1.6474   -0.8236    0.0000 F   0  0  0  0  0  0  0  0  0  0  0  0
   -0.0026   -0.8236    0.0000 F   0  0  0  0  0  0  0  0  0  0  0  0
    0.8224    0.0014    0.0000 C   0  0  0  0  0  0  0  0  0  0  0  0
    0.8224    0.8264    0.0000 F   0  0  0  0  0  0  0  0  0  0  0  0
    1.6474    0.0014    0.0000 F   0  0  0  0  0  0  0  0  0  0  0  0
   -0.0026    0.0014    0.0000 F   0  0  0  0  0  0  0  0  0  0  0  0
  1  2  1  0
  2  3  1  0
  3  4  1  0
  3  5  1  0
  3  6  1  0
  6  7  1  0
  6  8  1  0
  6  9  1  0
M  END
>  <id>  (507) 
1242

>  <casrn>  (507) 
422-05-9

>  <smiles (First)>  (507) 


>  <Molecular weight>  (507) 
150.04733276367188

>  <name>  (507) 
2,2,3,3,3-pentafluoropropan-1-ol

>  <Outcome>  (507) 
0

>  <Molecule (RDKit Mol) (InChI Code)>  (507) 
InChI=1S/C3H3F5O/c4-2(5,1-9)3(6,7)8/h9H,1H2

>  <reference>  (507) 
ECHA

>  <molecule_form>  (507) 
V

>  <ID>  (507) 


>  <SMILES>  (507) 
OCC(F)(F)C(F)(F)F

>  <ROMol>  (507) 
<rdkit.Chem.rdchem.Mol object at 0x0000027F5846E270>

$$$$

     RDKit          2D

 18 17  0  0  0  0  0  0  0  0999 V2000
    7.2336    5.0019    0.0000 C   0  0  0  0  0  0  0  0  0  0  0  0
    7.9480    5.4144    0.0000 C   0  0  0  0  0  0  0  0  0  0  0  0
    8.6625    5.0019    0.0000 C   0  0  0  0  0  0  0  0  0  0  0  0
    9.3770    5.4144    0.0000 C   0  0  0  0  0  0  0  0  0  0  0  0
   10.0914    5.0019    0.0000 C   0  0  0  0  0  0  0  0  0  0  0  0
   10.8059    5.4144    0.0000 C   0  0  0  0  0  0  0  0  0  0  0  0
   11.5204    5.0019    0.0000 C   0  0  0  0  0  0  0  0  0  0  0  0
   12.2349    5.4144    0.0000 C   0  0  0  0  0  0  0  0  0  0  0  0
   12.9493    5.0019    0.0000 C   0  0  0  0  0  0  0  0  0  0  0  0
   13.6638    5.4144    0.0000 C   0  0  0  0  0  0  0  0  0  0  0  0
   14.3783    5.0019    0.0000 C   0  0  0  0  0  0  0  0  0  0  0  0
   15.0927    5.4144    0.0000 C   0  0  0  0  0  0  0  0  0  0  0  0
   15.8072    5.0019    0.0000 C   0  0  0  0  0  0  0  0  0  0  0  0
   16.5217    5.4144    0.0000 C   0  0  0  0  0  0  0  0  0  0  0  0
   17.2362    5.0019    0.0000 C   0  0  0  0  0  0  0  0  0  0  0  0
   17.9506    5.4144    0.0000 C   0  0  0  0  0  0  0  0  0  0  0  0
   18.6651    5.0019    0.0000 C   0  0  0  0  0  0  0  0  0  0  0  0
   19.3796    5.4144    0.0000 C   0  0  0  0  0  0  0  0  0  0  0  0
  1  2  2  0
  2  3  1  0
  3  4  1  0
  4  5  1  0
  5  6  1  0
  6  7  1  0
  7  8  1  0
  8  9  1  0
  9 10  1  0
 10 11  1  0
 11 12  1  0
 12 13  1  0
 13 14  1  0
 14 15  1  0
 15 16  1  0
 16 17  1  0
 17 18  1  0
M  END
>  <id>  (508) 
3611; 3576; 3584; 3609; 3567; 3598; 3610; 3617

>  <casrn>  (508) 
112-88-9

>  <smiles (First)>  (508) 


>  <Molecular weight>  (508) 
252.47845458984375

>  <name>  (508) 
octadec-1-ene

>  <Outcome>  (508) 
0

>  <Molecule (RDKit Mol) (InChI Code)>  (508) 
InChI=1S/C18H36/c1-3-5-7-9-11-13-15-17-18-16-14-12-10-8-6-4-2/h3H,1,4-18H2,2H3

>  <reference>  (508) 
ECHA

>  <molecule_form>  (508) 
V

>  <ID>  (508) 


>  <SMILES>  (508) 
C=CCCCCCCCCCCCCCCCC

>  <ROMol>  (508) 
<rdkit.Chem.rdchem.Mol object at 0x0000027F6246BA50>

$$$$

     RDKit          2D

 16 15  0  0  0  0  0  0  0  0999 V2000
   -0.3820    6.3803    0.0000 C   0  0  0  0  0  0  0  0  0  0  0  0
   -0.3820    5.5553    0.0000 C   0  0  0  0  0  0  0  0  0  0  0  0
    0.3324    5.1428    0.0000 C   0  0  0  0  0  0  0  0  0  0  0  0
    0.3324    4.3178    0.0000 C   0  0  0  0  0  0  0  0  0  0  0  0
    1.0469    3.9053    0.0000 O   0  0  0  0  0  0  0  0  0  0  0  0
    1.0469    3.0803    0.0000 C   0  0  0  0  0  0  0  0  0  0  0  0
    0.3324    2.6678    0.0000 O   0  0  0  0  0  0  0  0  0  0  0  0
    1.7614    2.6678    0.0000 C   0  0  0  0  0  0  0  0  0  0  0  0
    1.7614    1.8428    0.0000 C   0  0  0  0  0  0  0  0  0  0  0  0
    2.4758    1.4303    0.0000 C   0  0  0  0  0  0  0  0  0  0  0  0
    2.4758    0.6053    0.0000 O   0  0  0  0  0  0  0  0  0  0  0  0
    3.1903    1.8428    0.0000 O   0  0  0  0  0  0  0  0  0  0  0  0
    3.9048    1.4303    0.0000 C   0  0  0  0  0  0  0  0  0  0  0  0
    4.6193    1.8428    0.0000 C   0  0  0  0  0  0  0  0  0  0  0  0
    5.3337    1.4303    0.0000 C   0  0  0  0  0  0  0  0  0  0  0  0
    6.0482    1.8428    0.0000 C   0  0  0  0  0  0  0  0  0  0  0  0
  1  2  1  0
  2  3  1  0
  3  4  1  0
  4  5  1  0
  5  6  1  0
  6  7  2  0
  8  6  1  0
  8  9  2  3
  9 10  1  0
 10 11  2  0
 10 12  1  0
 12 13  1  0
 13 14  1  0
 14 15  1  0
 15 16  1  0
M  END
>  <id>  (509) 
1056

>  <casrn>  (509) 
105-76-0

>  <smiles (First)>  (509) 


>  <Molecular weight>  (509) 
228.28480529785156

>  <name>  (509) 
1,4-dibutyl (2Z)-but-2-enedioate

>  <Outcome>  (509) 
0

>  <Molecule (RDKit Mol) (InChI Code)>  (509) 
InChI=1S/C12H20O4/c1-3-5-9-15-11(13)7-8-12(14)16-10-6-4-2/h7-8H,3-6,9-10H2,1-2H3

>  <reference>  (509) 
ECHA

>  <molecule_form>  (509) 
A

>  <ID>  (509) 


>  <SMILES>  (509) 
CCCCOC(=O)C=CC(=O)OCCCC

>  <ROMol>  (509) 
<rdkit.Chem.rdchem.Mol object at 0x0000027F584285F0>

$$$$

     RDKit          2D

 10  9  0  0  0  0  0  0  0  0999 V2000
    3.2846    1.4475    0.0000 C   0  0  0  0  0  0  0  0  0  0  0  0
    2.4596    1.4475    0.0000 C   0  0  0  0  0  0  0  0  0  0  0  0
    2.0471    2.1619    0.0000 O   0  0  0  0  0  0  0  0  0  0  0  0
    2.0471    0.7330    0.0000 O   0  0  0  0  0  0  0  0  0  0  0  0
    1.2221    0.7330    0.0000 C   0  0  0  0  0  0  0  0  0  0  0  0
    0.8096    0.0185    0.0000 C   0  0  0  0  0  0  0  0  0  0  0  0
   -0.0154    0.0185    0.0000 C   0  0  0  0  0  0  0  0  0  0  0  0
   -0.4279    0.7330    0.0000 C   0  0  0  0  0  0  0  0  0  0  0  0
   -0.4279   -0.6960    0.0000 C   0  0  0  0  0  0  0  0  0  0  0  0
   -0.0154   -1.4104    0.0000 O   0  0  0  0  0  0  0  0  0  0  0  0
  1  2  1  0
  2  3  2  0
  2  4  1  0
  4  5  1  0
  6  5  1  0
  6  7  2  3
  7  8  1  0
  7  9  1  0
  9 10  2  0
M  END
>  <id>  (510) 
1781

>  <casrn>  (510) 
26586-02-7

>  <smiles (First)>  (510) 


>  <Molecular weight>  (510) 
142.15249633789062

>  <name>  (510) 
3-methyl-4-oxobut-2-en-1-yl acetate

>  <Outcome>  (510) 
1

>  <Molecule (RDKit Mol) (InChI Code)>  (510) 
InChI=1S/C7H10O3/c1-6(5-8)3-4-10-7(2)9/h3,5H,4H2,1-2H3

>  <reference>  (510) 
ECHA

>  <molecule_form>  (510) 
A

>  <ID>  (510) 


>  <SMILES>  (510) 
CC(=O)OCC=C(C)C=O

>  <ROMol>  (510) 
<rdkit.Chem.rdchem.Mol object at 0x0000027F58408040>

$$$$

     RDKit          2D

 11 11  0  0  0  0  0  0  0  0999 V2000
    2.2576    0.8113    0.0000 F   0  0  0  0  0  0  0  0  0  0  0  0
    1.5432    0.3988    0.0000 C   0  0  0  0  0  0  0  0  0  0  0  0
    1.1307    1.1133    0.0000 F   0  0  0  0  0  0  0  0  0  0  0  0
    1.9557   -0.3157    0.0000 F   0  0  0  0  0  0  0  0  0  0  0  0
    0.8287   -0.0137    0.0000 C   0  0  0  0  0  0  0  0  0  0  0  0
    0.1142    0.3988    0.0000 C   0  0  0  0  0  0  0  0  0  0  0  0
   -0.6002   -0.0137    0.0000 C   0  0  0  0  0  0  0  0  0  0  0  0
   -0.6002   -0.8387    0.0000 C   0  0  0  0  0  0  0  0  0  0  0  0
   -1.3147   -1.2512    0.0000 Cl  0  0  0  0  0  0  0  0  0  0  0  0
    0.1142   -1.2512    0.0000 N   0  0  0  0  0  0  0  0  0  0  0  0
    0.8287   -0.8387    0.0000 C   0  0  0  0  0  0  0  0  0  0  0  0
  1  2  1  0
  2  3  1  0
  2  4  1  0
  2  5  1  0
  6  5  2  0
  7  6  1  0
  8  7  2  0
  8  9  1  0
 10  8  1  0
 11 10  2  0
  5 11  1  0
M  END
>  <id>  (511) 
266441

>  <casrn>  (511) 
52334-81-3

>  <smiles (First)>  (511) 
FC(F)(F)c1ccc(Cl)nc1

>  <Molecular weight>  (511) 
181.54293823242188

>  <name>  (511) 
Pyridine, 2-chloro-5-(trifluoromethyl)-

>  <Outcome>  (511) 
1

>  <Molecule (RDKit Mol) (InChI Code)>  (511) 
InChI=1S/C6H3ClF3N/c7-5-2-1-4(3-11-5)6(8,9)10/h1-3H

>  <reference>  (511) 
ToxValDB

>  <molecule_form>  (511) 
not specified

>  <ID>  (511) 


>  <SMILES>  (511) 
FC(F)(F)c1ccc(Cl)nc1

>  <ROMol>  (511) 
<rdkit.Chem.rdchem.Mol object at 0x0000027F585CBBA0>

$$$$

     RDKit          2D

 11 11  0  0  0  0  0  0  0  0999 V2000
    0.7145    2.0625    0.0000 F   0  0  0  0  0  0  0  0  0  0  0  0
    0.7145    1.2375    0.0000 C   0  0  0  0  0  0  0  0  0  0  0  0
    1.4289    0.8250    0.0000 C   0  0  0  0  0  0  0  0  0  0  0  0
    1.4289    0.0000    0.0000 C   0  0  0  0  0  0  0  0  0  0  0  0
    0.7145   -0.4125    0.0000 C   0  0  0  0  0  0  0  0  0  0  0  0
   -0.0000    0.0000    0.0000 C   0  0  0  0  0  0  0  0  0  0  0  0
   -0.7145   -0.4125    0.0000 C   0  0  0  0  0  0  0  0  0  0  0  0
   -1.4289   -0.8250    0.0000 F   0  0  0  0  0  0  0  0  0  0  0  0
   -1.1270    0.3020    0.0000 F   0  0  0  0  0  0  0  0  0  0  0  0
   -0.3020   -1.1270    0.0000 F   0  0  0  0  0  0  0  0  0  0  0  0
   -0.0000    0.8250    0.0000 N   0  0  0  0  0  0  0  0  0  0  0  0
  1  2  1  0
  2  3  2  0
  3  4  1  0
  4  5  2  0
  5  6  1  0
  6  7  1  0
  7  8  1  0
  7  9  1  0
  7 10  1  0
  6 11  2  0
  2 11  1  0
M  END
>  <id>  (512) 
419

>  <casrn>  (512) 
94239-04-0

>  <smiles (First)>  (512) 


>  <Molecular weight>  (512) 
165.0883331298828

>  <name>  (512) 
-

>  <Outcome>  (512) 
1

>  <Molecule (RDKit Mol) (InChI Code)>  (512) 
InChI=1S/C6H3F4N/c7-5-3-1-2-4(11-5)6(8,9)10/h1-3H

>  <reference>  (512) 
ECHA

>  <molecule_form>  (512) 
V

>  <ID>  (512) 


>  <SMILES>  (512) 
Fc1cccc(C(F)(F)F)n1

>  <ROMol>  (512) 
<rdkit.Chem.rdchem.Mol object at 0x0000027F58428B30>

$$$$

     RDKit          2D

 35 34  0  0  0  0  0  0  0  0999 V2000
   -5.6479    2.5313    0.0000 C   0  0  0  0  0  0  0  0  0  0  0  0
   -4.9334    2.9438    0.0000 C   0  0  0  0  0  0  0  0  0  0  0  0
   -4.2190    2.5313    0.0000 C   0  0  0  0  0  0  0  0  0  0  0  0
   -3.5045    2.9438    0.0000 C   0  0  0  0  0  0  0  0  0  0  0  0
   -2.7900    2.5313    0.0000 C   0  0  0  0  0  0  0  0  0  0  0  0
   -2.7900    1.7063    0.0000 C   0  0  0  0  0  0  0  0  0  0  0  0
   -2.0755    1.2938    0.0000 C   0  0  0  0  0  0  0  0  0  0  0  0
   -2.0755    2.9438    0.0000 C   0  0  0  0  0  0  0  0  0  0  0  0
   -1.3611    2.5313    0.0000 O   0  0  0  0  0  0  0  0  0  0  0  0
   -0.6466    2.9438    0.0000 C   0  0  0  0  0  0  0  0  0  0  0  0
   -0.6466    3.7688    0.0000 O   0  0  0  0  0  0  0  0  0  0  0  0
    0.0679    2.5313    0.0000 C   0  0  0  0  0  0  0  0  0  0  0  0
    0.7823    2.9438    0.0000 S   0  0  0  0  0  0  0  0  0  0  0  0
    1.4968    2.5313    0.0000 Sn  0  0  0  0  0  4  0  0  0  0  0  0
    1.0843    1.8168    0.0000 C   0  0  0  0  0  0  0  0  0  0  0  0
    1.4968    1.1023    0.0000 C   0  0  0  0  0  0  0  0  0  0  0  0
    1.0843    0.3879    0.0000 C   0  0  0  0  0  0  0  0  0  0  0  0
    0.2593    0.3879    0.0000 C   0  0  0  0  0  0  0  0  0  0  0  0
    1.9093    3.2457    0.0000 C   0  0  0  0  0  0  0  0  0  0  0  0
    2.7343    3.2457    0.0000 C   0  0  0  0  0  0  0  0  0  0  0  0
    3.1468    3.9602    0.0000 C   0  0  0  0  0  0  0  0  0  0  0  0
    3.9718    3.9602    0.0000 C   0  0  0  0  0  0  0  0  0  0  0  0
    2.2113    2.1188    0.0000 S   0  0  0  0  0  0  0  0  0  0  0  0
    2.9258    2.5313    0.0000 C   0  0  0  0  0  0  0  0  0  0  0  0
    3.6402    2.1188    0.0000 C   0  0  0  0  0  0  0  0  0  0  0  0
    3.6402    1.2938    0.0000 O   0  0  0  0  0  0  0  0  0  0  0  0
    4.3547    2.5313    0.0000 O   0  0  0  0  0  0  0  0  0  0  0  0
    5.0692    2.1188    0.0000 C   0  0  0  0  0  0  0  0  0  0  0  0
    5.7836    2.5313    0.0000 C   0  0  0  0  0  0  0  0  0  0  0  0
    5.7836    3.3563    0.0000 C   0  0  0  0  0  0  0  0  0  0  0  0
    6.4981    3.7688    0.0000 C   0  0  0  0  0  0  0  0  0  0  0  0
    6.4981    2.1188    0.0000 C   0  0  0  0  0  0  0  0  0  0  0  0
    7.2126    2.5313    0.0000 C   0  0  0  0  0  0  0  0  0  0  0  0
    7.9270    2.1188    0.0000 C   0  0  0  0  0  0  0  0  0  0  0  0
    8.6415    2.5313    0.0000 C   0  0  0  0  0  0  0  0  0  0  0  0
  1  2  1  0
  2  3  1  0
  3  4  1  0
  4  5  1  0
  5  6  1  0
  6  7  1  0
  5  8  1  0
  8  9  1  0
  9 10  1  0
 10 11  2  0
 10 12  1  0
 12 13  1  0
 13 14  1  0
 14 15  1  0
 15 16  1  0
 16 17  1  0
 17 18  1  0
 14 19  1  0
 19 20  1  0
 20 21  1  0
 21 22  1  0
 14 23  1  0
 23 24  1  0
 24 25  1  0
 25 26  2  0
 25 27  1  0
 27 28  1  0
 28 29  1  0
 29 30  1  0
 30 31  1  0
 29 32  1  0
 32 33  1  0
 33 34  1  0
 34 35  1  0
M  END
>  <id>  (513) 
1472

>  <casrn>  (513) 
10584-98-2

>  <smiles (First)>  (513) 


>  <Molecular weight>  (513) 
639.5818481445312

>  <name>  (513) 
2-ethylhexyl 2-{[dibutyl({2-[(2-ethylhexyl)oxy]-2-oxoethyl}sulfanyl)stannyl]sulfanyl}acetate

>  <Outcome>  (513) 
1

>  <Molecule (RDKit Mol) (InChI Code)>  (513) 
InChI=1S/2C10H20O2S.2C4H9.Sn/c2*1-3-5-6-9(4-2)7-12-10(11)8-13;2*1-3-4-2;/h2*9,13H,3-8H2,1-2H3;2*1,3-4H2,2H3;/q;;;;+2/p-2

>  <reference>  (513) 
ECHA

>  <molecule_form>  (513) 
A

>  <ID>  (513) 


>  <SMILES>  (513) 
CCCCC(CC)COC(=O)CS[Sn](CCCC)(CCCC)SCC(=O)OCC(CC)CCCC

>  <ROMol>  (513) 
<rdkit.Chem.rdchem.Mol object at 0x0000027F5846E510>

$$$$

     RDKit          2D

  5  5  0  0  0  0  0  0  0  0999 V2000
    1.2992    0.4450    0.0000 C   0  0  0  0  0  0  0  0  0  0  0  0
    1.0443   -0.3396    0.0000 C   0  0  0  0  0  0  0  0  0  0  0  0
    0.2193   -0.3396    0.0000 C   0  0  0  0  0  0  0  0  0  0  0  0
   -0.0356    0.4450    0.0000 C   0  0  0  0  0  0  0  0  0  0  0  0
    0.6318    0.9299    0.0000 C   0  0  0  0  0  0  0  0  0  0  0  0
  1  2  2  0
  2  3  1  0
  3  4  1  0
  4  5  1  0
  1  5  1  0
M  END
>  <id>  (514) 
2846

>  <casrn>  (514) 
142-29-0

>  <smiles (First)>  (514) 


>  <Molecular weight>  (514) 
68.11701965332031

>  <name>  (514) 
cyclopentene

>  <Outcome>  (514) 
0

>  <Molecule (RDKit Mol) (InChI Code)>  (514) 
InChI=1S/C5H8/c1-2-4-5-3-1/h1-2H,3-5H2

>  <reference>  (514) 
ECHA

>  <molecule_form>  (514) 
V

>  <ID>  (514) 


>  <SMILES>  (514) 
C1=CCCC1

>  <ROMol>  (514) 
<rdkit.Chem.rdchem.Mol object at 0x0000027F624B1D60>

$$$$

     RDKit          2D

 12 13  0  0  0  0  0  0  0  0999 V2000
   -1.1003   -2.1058    0.0000 O   0  0  0  0  0  0  0  0  0  0  0  0
   -0.8454   -1.3211    0.0000 C   0  0  0  0  0  0  0  0  0  0  0  0
   -1.3303   -0.6537    0.0000 N   0  0  0  0  0  0  0  0  0  0  0  0
   -0.8454    0.0137    0.0000 S   0  0  0  0  0  0  0  0  0  0  0  0
   -1.5598    0.4262    0.0000 O   0  0  0  0  0  0  0  0  0  0  0  0
   -0.5098    0.7674    0.0000 O   0  0  0  0  0  0  0  0  0  0  0  0
   -0.0608   -0.2412    0.0000 C   0  0  0  0  0  0  0  0  0  0  0  0
    0.6537    0.1713    0.0000 C   0  0  0  0  0  0  0  0  0  0  0  0
    1.3682   -0.2412    0.0000 C   0  0  0  0  0  0  0  0  0  0  0  0
    1.3682   -1.0662    0.0000 C   0  0  0  0  0  0  0  0  0  0  0  0
    0.6537   -1.4787    0.0000 C   0  0  0  0  0  0  0  0  0  0  0  0
   -0.0608   -1.0662    0.0000 C   0  0  0  0  0  0  0  0  0  0  0  0
  1  2  2  0
  3  2  1  0
  4  3  1  0
  4  5  2  0
  4  6  2  0
  7  4  1  0
  7  8  2  0
  8  9  1  0
  9 10  2  0
 10 11  1  0
 11 12  2  0
  2 12  1  0
 12  7  1  0
M  END
>  <id>  (515) 
330319

>  <casrn>  (515) 
81-07-2

>  <smiles (First)>  (515) 
O=C1N[S](=O)(=O)c2ccccc12

>  <Molecular weight>  (515) 
183.1844940185547

>  <name>  (515) 
Saccharin

>  <Outcome>  (515) 
0

>  <Molecule (RDKit Mol) (InChI Code)>  (515) 
InChI=1S/C7H5NO3S/c9-7-5-3-1-2-4-6(5)12(10,11)8-7/h1-4H,(H,8,9)

>  <reference>  (515) 
ToxValDB

>  <molecule_form>  (515) 
not specified

>  <ID>  (515) 


>  <SMILES>  (515) 
O=C1NS(=O)(=O)c2ccccc21

>  <ROMol>  (515) 
<rdkit.Chem.rdchem.Mol object at 0x0000027F6244F900>

$$$$

     RDKit          2D

  8  8  0  0  0  0  0  0  0  0999 V2000
    1.9711   -0.0822    0.0000 C   0  0  0  0  0  0  0  0  0  0  0  0
    1.1507   -0.1684    0.0000 C   0  0  0  0  0  0  0  0  0  0  0  0
    0.6657    0.4990    0.0000 N   0  0  0  0  0  0  0  0  0  0  0  0
   -0.1593    0.4990    0.0000 C   0  0  0  0  0  0  0  0  0  0  0  0
   -0.4142    1.2836    0.0000 C   0  0  0  0  0  0  0  0  0  0  0  0
    0.2532    1.7686    0.0000 C   0  0  0  0  0  0  0  0  0  0  0  0
    0.9207    1.2836    0.0000 C   0  0  0  0  0  0  0  0  0  0  0  0
    1.7053    1.5386    0.0000 O   0  0  0  0  0  0  0  0  0  0  0  0
  1  2  2  0
  2  3  1  0
  3  4  1  0
  4  5  1  0
  5  6  1  0
  6  7  1  0
  3  7  1  0
  7  8  2  0
M  END
>  <id>  (516) 
1158

>  <casrn>  (516) 
88-12-0

>  <smiles (First)>  (516) 


>  <Molecular weight>  (516) 
111.14176177978516

>  <name>  (516) 
1-ethenylpyrrolidin-2-one

>  <Outcome>  (516) 
1

>  <Molecule (RDKit Mol) (InChI Code)>  (516) 
InChI=1S/C6H9NO/c1-2-7-5-3-4-6(7)8/h2H,1,3-5H2

>  <reference>  (516) 
ECHA

>  <molecule_form>  (516) 
A

>  <ID>  (516) 


>  <SMILES>  (516) 
C=CN1CCCC1=O

>  <ROMol>  (516) 
<rdkit.Chem.rdchem.Mol object at 0x0000027F584D54A0>

$$$$

     RDKit          2D

 16 15  0  0  0  0  0  0  0  0999 V2000
    1.6461   -1.8768    0.0000 C   0  0  0  0  0  0  0  0  0  0  0  0
    2.3606   -1.4643    0.0000 C   0  0  0  0  0  0  0  0  0  0  0  0
    3.0751   -1.8768    0.0000 C   0  0  0  0  0  0  0  0  0  0  0  0
    3.7895   -1.4643    0.0000 C   0  0  0  0  0  0  0  0  0  0  0  0
    4.5040   -1.8768    0.0000 C   0  0  0  0  0  0  0  0  0  0  0  0
    4.5040   -2.7018    0.0000 C   0  0  0  0  0  0  0  0  0  0  0  0
    5.2185   -3.1143    0.0000 C   0  0  0  0  0  0  0  0  0  0  0  0
    5.2185   -1.4643    0.0000 C   0  0  0  0  0  0  0  0  0  0  0  0
    5.2185   -0.6393    0.0000 O   0  0  0  0  0  0  0  0  0  0  0  0
    5.9330   -1.8768    0.0000 O   0  0  0  0  0  0  0  0  0  0  0  0
    6.6474   -1.4643    0.0000 O   0  0  0  0  0  0  0  0  0  0  0  0
    7.3619   -1.8768    0.0000 C   0  0  0  0  0  0  0  0  0  0  0  0
    6.9494   -2.5913    0.0000 C   0  0  0  0  0  0  0  0  0  0  0  0
    7.7744   -1.1623    0.0000 C   0  0  0  0  0  0  0  0  0  0  0  0
    8.0764   -2.2893    0.0000 C   0  0  0  0  0  0  0  0  0  0  0  0
    8.7908   -1.8768    0.0000 C   0  0  0  0  0  0  0  0  0  0  0  0
  1  2  1  0
  2  3  1  0
  3  4  1  0
  4  5  1  0
  5  6  1  0
  6  7  1  0
  5  8  1  0
  8  9  2  0
  8 10  1  0
 10 11  1  0
 11 12  1  0
 12 13  1  0
 12 14  1  0
 12 15  1  0
 15 16  1  0
M  END
>  <id>  (517) 
899; 900

>  <casrn>  (517) 
686-31-7

>  <smiles (First)>  (517) 


>  <Molecular weight>  (517) 
230.34375

>  <name>  (517) 
1,1-dimethylpropyl 2-(ethylperoxy)hexanoate

>  <Outcome>  (517) 
0

>  <Molecule (RDKit Mol) (InChI Code)>  (517) 
InChI=1S/C13H26O3/c1-6-9-10-11(7-2)12(14)15-16-13(4,5)8-3/h11H,6-10H2,1-5H3

>  <reference>  (517) 
ECHA

>  <molecule_form>  (517) 
A

>  <ID>  (517) 


>  <SMILES>  (517) 
CCCCC(CC)C(=O)OOC(C)(C)CC

>  <ROMol>  (517) 
<rdkit.Chem.rdchem.Mol object at 0x0000027F58428120>

$$$$

     RDKit          2D

  7  7  0  0  0  0  0  0  0  0999 V2000
    1.9580    1.3463    0.0000 C   0  0  0  0  0  0  0  0  0  0  0  0
    1.2435    0.9338    0.0000 N   0  0  0  0  0  0  0  0  0  0  0  0
    1.2435    0.1088    0.0000 C   0  0  0  0  0  0  0  0  0  0  0  0
    0.5290   -0.3037    0.0000 C   0  0  0  0  0  0  0  0  0  0  0  0
   -0.1854    0.1088    0.0000 C   0  0  0  0  0  0  0  0  0  0  0  0
   -0.1854    0.9338    0.0000 C   0  0  0  0  0  0  0  0  0  0  0  0
    0.5290    1.3463    0.0000 C   0  0  0  0  0  0  0  0  0  0  0  0
  1  2  1  0
  2  3  1  0
  3  4  1  0
  4  5  1  0
  5  6  1  0
  6  7  1  0
  2  7  1  0
M  END
>  <id>  (518) 
1202

>  <casrn>  (518) 
626-67-5

>  <smiles (First)>  (518) 


>  <Molecular weight>  (518) 
99.17411804199219

>  <name>  (518) 
1-methylpiperidine

>  <Outcome>  (518) 
1

>  <Molecule (RDKit Mol) (InChI Code)>  (518) 
InChI=1S/C6H13N/c1-7-5-3-2-4-6-7/h2-6H2,1H3

>  <reference>  (518) 
ECHA

>  <molecule_form>  (518) 
V

>  <ID>  (518) 


>  <SMILES>  (518) 
CN1CCCCC1

>  <ROMol>  (518) 
<rdkit.Chem.rdchem.Mol object at 0x0000027F58905DD0>

$$$$

     RDKit          2D

  4  3  0  0  0  0  0  0  0  0999 V2000
    2.0625   -0.7145    0.0000 N   0  0  0  0  0  0  0  0  0  0  0  0
    1.2375   -0.7145    0.0000 C   0  0  0  0  0  0  0  0  0  0  0  0
    0.8250   -0.0000    0.0000 C   0  0  0  0  0  0  0  0  0  0  0  0
    0.0000   -0.0000    0.0000 N   0  0  0  0  0  0  0  0  0  0  0  0
  1  2  1  0
  2  3  1  0
  3  4  1  0
M  END
>  <id>  (519) 
3113

>  <casrn>  (519) 
107-15-3

>  <smiles (First)>  (519) 


>  <Molecular weight>  (519) 
60.09832000732422

>  <name>  (519) 
ethane-1,2-diamine

>  <Outcome>  (519) 
1

>  <Molecule (RDKit Mol) (InChI Code)>  (519) 
InChI=1S/C2H8N2/c3-1-2-4/h1-4H2

>  <reference>  (519) 
ECHA

>  <molecule_form>  (519) 
V

>  <ID>  (519) 


>  <SMILES>  (519) 
NCCN

>  <ROMol>  (519) 
<rdkit.Chem.rdchem.Mol object at 0x0000027F585E2270>

$$$$

     RDKit          2D

  6  5  0  0  0  0  0  0  0  0999 V2000
    0.8894   -1.5442    0.0000 C   0  0  0  0  0  0  0  0  0  0  0  0
    0.8894   -0.7192    0.0000 C   0  0  0  0  0  0  0  0  0  0  0  0
    0.8894    0.1058    0.0000 C   0  0  0  0  0  0  0  0  0  0  0  0
    0.8894    0.9308    0.0000 C   0  0  0  0  0  0  0  0  0  0  0  0
    1.7144    0.1058    0.0000 C   0  0  0  0  0  0  0  0  0  0  0  0
    0.0644    0.1058    0.0000 O   0  0  0  0  0  0  0  0  0  0  0  0
  1  2  3  0
  2  3  1  0
  3  4  1  0
  3  5  1  0
  3  6  1  0
M  END
>  <id>  (520) 
1512

>  <casrn>  (520) 
115-19-5

>  <smiles (First)>  (520) 


>  <Molecular weight>  (520) 
84.11642456054688

>  <name>  (520) 
2-methylbut-3-yn-2-ol

>  <Outcome>  (520) 
0

>  <Molecule (RDKit Mol) (InChI Code)>  (520) 
InChI=1S/C5H8O/c1-4-5(2,3)6/h1,6H,2-3H3

>  <reference>  (520) 
ECHA

>  <molecule_form>  (520) 
V

>  <ID>  (520) 


>  <SMILES>  (520) 
C#CC(C)(C)O

>  <ROMol>  (520) 
<rdkit.Chem.rdchem.Mol object at 0x0000027F6246B510>

$$$$

     RDKit          2D

  8  7  0  0  0  0  0  0  0  0999 V2000
    2.8027    0.6684    0.0000 C   0  0  0  0  0  0  0  0  0  0  0  0
    2.0883    0.2559    0.0000 O   0  0  0  0  0  0  0  0  0  0  0  0
    1.3738    0.6684    0.0000 Si  0  0  0  0  0  4  0  0  0  0  0  0
    1.7863    1.3828    0.0000 C   0  0  0  0  0  0  0  0  0  0  0  0
    0.6593    1.0809    0.0000 O   0  0  0  0  0  0  0  0  0  0  0  0
   -0.0551    0.6684    0.0000 C   0  0  0  0  0  0  0  0  0  0  0  0
    0.9613   -0.0461    0.0000 O   0  0  0  0  0  0  0  0  0  0  0  0
    0.1363   -0.0461    0.0000 C   0  0  0  0  0  0  0  0  0  0  0  0
  1  2  1  0
  2  3  1  0
  3  4  1  0
  3  5  1  0
  5  6  1  0
  3  7  1  0
  7  8  1  0
M  END
>  <id>  (521) 
4085

>  <casrn>  (521) 
1185-55-3

>  <smiles (First)>  (521) 


>  <Molecular weight>  (521) 
136.22178649902344

>  <name>  (521) 
trimethoxy(methyl)silane

>  <Outcome>  (521) 
0

>  <Molecule (RDKit Mol) (InChI Code)>  (521) 
InChI=1S/C4H12O3Si/c1-5-8(4,6-2)7-3/h1-4H3

>  <reference>  (521) 
ECHA

>  <molecule_form>  (521) 
V

>  <ID>  (521) 


>  <SMILES>  (521) 
CO[Si](C)(OC)OC

>  <ROMol>  (521) 
<rdkit.Chem.rdchem.Mol object at 0x0000027F5842F430>

$$$$

     RDKit          2D

 10 10  0  0  0  0  0  0  0  0999 V2000
    0.0000    3.3000    0.0000 N   0  0  0  0  0  0  0  0  0  0  0  0
    0.0000    2.4750    0.0000 C   0  0  0  0  0  0  0  0  0  0  0  0
    0.7145    2.0625    0.0000 C   0  0  0  0  0  0  0  0  0  0  0  0
    0.7145    1.2375    0.0000 C   0  0  0  0  0  0  0  0  0  0  0  0
    1.4289    0.8250    0.0000 C   0  0  0  0  0  0  0  0  0  0  0  0
    1.4289   -0.0000    0.0000 C   0  0  0  0  0  0  0  0  0  0  0  0
    0.7145   -0.4125    0.0000 C   0  0  0  0  0  0  0  0  0  0  0  0
    0.7145   -1.2375    0.0000 O   0  0  0  0  0  0  0  0  0  0  0  0
    0.0000    0.0000    0.0000 C   0  0  0  0  0  0  0  0  0  0  0  0
    0.0000    0.8250    0.0000 C   0  0  0  0  0  0  0  0  0  0  0  0
  1  2  1  0
  2  3  1  0
  3  4  1  0
  4  5  2  0
  5  6  1  0
  6  7  2  0
  7  8  1  0
  7  9  1  0
  9 10  2  0
  4 10  1  0
M  END
>  <id>  (522) 
1815

>  <casrn>  (522) 
51-67-2

>  <smiles (First)>  (522) 


>  <Molecular weight>  (522) 
137.17904663085938

>  <name>  (522) 
4-(2-aminoethyl)phenol

>  <Outcome>  (522) 
0

>  <Molecule (RDKit Mol) (InChI Code)>  (522) 
InChI=1S/C8H11NO/c9-6-5-7-1-3-8(10)4-2-7/h1-4,10H,5-6,9H2

>  <reference>  (522) 
ECHA

>  <molecule_form>  (522) 
A

>  <ID>  (522) 


>  <SMILES>  (522) 
NCCc1ccc(O)cc1

>  <ROMol>  (522) 
<rdkit.Chem.rdchem.Mol object at 0x0000027F58437660>

$$$$

     RDKit          2D

 20 19  0  0  0  0  0  0  0  0999 V2000
    5.1197    1.0622    0.0000 O   0  0  0  0  0  0  0  0  0  0  0  0
    5.9298    1.2181    0.0000 C   0  0  0  0  0  0  0  0  0  0  0  0
    6.1999    1.9977    0.0000 O   0  0  0  0  0  0  0  0  0  0  0  0
    6.4699    0.5945    0.0000 C   0  0  0  0  0  0  0  0  0  0  0  0
    6.1999   -0.1851    0.0000 N   0  0  0  0  0  0  0  0  0  0  0  0
    5.3898   -0.3410    0.0000 C   0  0  0  0  0  0  0  0  0  0  0  0
    5.1197   -1.1205    0.0000 C   0  0  0  0  0  0  0  0  0  0  0  0
    4.3096   -1.2764    0.0000 N   0  0  0  0  0  0  0  0  0  0  0  0
    4.0395   -2.0560    0.0000 C   0  0  0  0  0  0  0  0  0  0  0  0
    4.5796   -2.6796    0.0000 C   0  0  0  0  0  0  0  0  0  0  0  0
    5.3898   -2.5237    0.0000 O   0  0  0  0  0  0  0  0  0  0  0  0
    4.3096   -3.4592    0.0000 O   0  0  0  0  0  0  0  0  0  0  0  0
    3.7695   -0.6528    0.0000 C   0  0  0  0  0  0  0  0  0  0  0  0
    2.9594   -0.8087    0.0000 C   0  0  0  0  0  0  0  0  0  0  0  0
    2.4193   -0.1851    0.0000 O   0  0  0  0  0  0  0  0  0  0  0  0
    2.6893   -1.5883    0.0000 O   0  0  0  0  0  0  0  0  0  0  0  0
    6.7400   -0.8087    0.0000 C   0  0  0  0  0  0  0  0  0  0  0  0
    7.5501   -0.6528    0.0000 C   0  0  0  0  0  0  0  0  0  0  0  0
    7.8202    0.1268    0.0000 O   0  0  0  0  0  0  0  0  0  0  0  0
    8.0902   -1.2764    0.0000 O   0  0  0  0  0  0  0  0  0  0  0  0
  1  2  2  0
  2  3  1  0
  2  4  1  0
  4  5  1  0
  5  6  1  0
  6  7  1  0
  7  8  1  0
  8  9  1  0
  9 10  1  0
 10 11  2  0
 10 12  1  0
  8 13  1  0
 13 14  1  0
 14 15  2  0
 14 16  1  0
  5 17  1  0
 17 18  1  0
 18 19  2  0
 18 20  1  0
M  END
>  <id>  (523) 
3408; 4177

>  <casrn>  (523) 
15375-84-5

>  <smiles (First)>  (523) 


>  <Molecular weight>  (523) 
288.21087646484375

>  <name>  (523) 
manganese(2+) ion disodium 2-({2-[bis(carboxylatomethyl)amino]ethyl}(carboxylatomethyl)amino)acetate

>  <Outcome>  (523) 
0

>  <Molecule (RDKit Mol) (InChI Code)>  (523) 
InChI=1S/C10H16N2O8/c13-7(14)3-11(4-8(15)16)1-2-12(5-9(17)18)6-10(19)20/h1-6H2,(H,13,14)(H,15,16)(H,17,18)(H,19,20)

>  <reference>  (523) 
ECHA

>  <molecule_form>  (523) 
A

>  <ID>  (523) 


>  <SMILES>  (523) 
O=C(O)CN(CCN(CC(=O)O)CC(=O)O)CC(=O)O

>  <ROMol>  (523) 
<rdkit.Chem.rdchem.Mol object at 0x0000027F584197B0>

$$$$

     RDKit          2D

 24 25  0  0  0  0  0  0  0  0999 V2000
    1.4355   -5.8426    0.0000 C   0  0  0  0  0  0  0  0  0  0  0  0
    2.1500   -5.4301    0.0000 C   0  0  0  0  0  0  0  0  0  0  0  0
    2.8645   -5.0176    0.0000 C   0  0  0  0  0  0  0  0  0  0  0  0
    3.5790   -5.4301    0.0000 O   0  0  0  0  0  0  0  0  0  0  0  0
    4.2934   -5.0176    0.0000 S   0  0  0  0  0  0  0  0  0  0  0  0
    4.2934   -4.1926    0.0000 O   0  0  0  0  0  0  0  0  0  0  0  0
    5.0079   -5.4301    0.0000 O   0  0  0  0  0  0  0  0  0  0  0  0
    5.7224   -5.0176    0.0000 C   0  0  0  0  0  0  0  0  0  0  0  0
    5.7224   -4.1926    0.0000 C   0  0  0  0  0  0  0  0  0  0  0  0
    6.4368   -3.7801    0.0000 C   0  0  0  0  0  0  0  0  0  0  0  0
    7.1513   -4.1926    0.0000 C   0  0  0  0  0  0  0  0  0  0  0  0
    7.1513   -5.0176    0.0000 C   0  0  0  0  0  0  0  0  0  0  0  0
    6.4368   -5.4301    0.0000 C   0  0  0  0  0  0  0  0  0  0  0  0
    6.4368   -6.2551    0.0000 O   0  0  0  0  0  0  0  0  0  0  0  0
    7.1513   -6.6676    0.0000 C   0  0  0  0  0  0  0  0  0  0  0  0
    7.8658   -6.2551    0.0000 C   0  0  0  0  0  0  0  0  0  0  0  0
    8.5803   -6.6676    0.0000 C   0  0  0  0  0  0  0  0  0  0  0  0
    8.5803   -7.4926    0.0000 C   0  0  0  0  0  0  0  0  0  0  0  0
    9.2947   -7.9051    0.0000 C   0  0  0  0  0  0  0  0  0  0  0  0
   10.0092   -8.3176    0.0000 C   0  0  0  0  0  0  0  0  0  0  0  0
    8.8822   -8.6196    0.0000 C   0  0  0  0  0  0  0  0  0  0  0  0
    9.7072   -7.1906    0.0000 C   0  0  0  0  0  0  0  0  0  0  0  0
    7.8658   -7.9051    0.0000 C   0  0  0  0  0  0  0  0  0  0  0  0
    7.1513   -7.4926    0.0000 C   0  0  0  0  0  0  0  0  0  0  0  0
  1  2  3  0
  2  3  1  0
  3  4  1  0
  4  5  1  0
  5  6  2  0
  5  7  1  0
  7  8  1  0
  8  9  1  0
  9 10  1  0
 10 11  1  0
 11 12  1  0
 12 13  1  0
  8 13  1  0
 13 14  1  0
 14 15  1  0
 15 16  2  0
 16 17  1  0
 17 18  2  0
 18 19  1  0
 19 20  1  0
 19 21  1  0
 19 22  1  0
 18 23  1  0
 23 24  2  0
 15 24  1  0
M  END
>  <id>  (524) 
1331

>  <casrn>  (524) 
2312-35-8

>  <smiles (First)>  (524) 


>  <Molecular weight>  (524) 
350.47235107421875

>  <name>  (524) 
2-(4-tert-butylphenoxy)cyclohexyl prop-2-yn-1-yl sulfite

>  <Outcome>  (524) 
1

>  <Molecule (RDKit Mol) (InChI Code)>  (524) 
InChI=1S/C19H26O4S/c1-5-14-21-24(20)23-18-9-7-6-8-17(18)22-16-12-10-15(11-13-16)19(2,3)4/h1,10-13,17-18H,6-9,14H2,2-4H3

>  <reference>  (524) 
ECHA

>  <molecule_form>  (524) 
A

>  <ID>  (524) 


>  <SMILES>  (524) 
C#CCOS(=O)OC1CCCCC1Oc1ccc(C(C)(C)C)cc1

>  <ROMol>  (524) 
<rdkit.Chem.rdchem.Mol object at 0x0000027F584AC510>

$$$$

     RDKit          2D

  7  6  0  0  0  0  0  0  0  0999 V2000
    2.4750   -1.4289    0.0000 C   0  0  0  0  0  0  0  0  0  0  0  0
    2.0625   -0.7145    0.0000 C   0  0  0  0  0  0  0  0  0  0  0  0
    2.4750    0.0000    0.0000 C   0  0  0  0  0  0  0  0  0  0  0  0
    1.2375   -0.7145    0.0000 C   0  0  0  0  0  0  0  0  0  0  0  0
    0.8250   -1.4289    0.0000 O   0  0  0  0  0  0  0  0  0  0  0  0
    0.8250    0.0000    0.0000 O   0  0  0  0  0  0  0  0  0  0  0  0
    0.0000    0.0000    0.0000 C   0  0  0  0  0  0  0  0  0  0  0  0
  1  2  2  0
  2  3  1  0
  2  4  1  0
  4  5  2  0
  4  6  1  0
  6  7  1  0
M  END
>  <id>  (525) 
3455

>  <casrn>  (525) 
80-62-6

>  <smiles (First)>  (525) 


>  <Molecular weight>  (525) 
100.1158218383789

>  <name>  (525) 
methyl 2-methylprop-2-enoate

>  <Outcome>  (525) 
0

>  <Molecule (RDKit Mol) (InChI Code)>  (525) 
InChI=1S/C5H8O2/c1-4(2)5(6)7-3/h1H2,2-3H3

>  <reference>  (525) 
ECHA

>  <molecule_form>  (525) 
V

>  <ID>  (525) 


>  <SMILES>  (525) 
C=C(C)C(=O)OC

>  <ROMol>  (525) 
<rdkit.Chem.rdchem.Mol object at 0x0000027F584D5580>

$$$$

     RDKit          2D

 17 17  0  0  0  0  0  0  0  0999 V2000
   -1.1654   -1.8567    0.0000 C   0  0  0  0  0  0  0  0  0  0  0  0
   -0.4509   -1.4442    0.0000 C   0  0  0  0  0  0  0  0  0  0  0  0
    0.2635   -1.8567    0.0000 C   0  0  0  0  0  0  0  0  0  0  0  0
    0.9780   -1.4442    0.0000 C   0  0  0  0  0  0  0  0  0  0  0  0
    1.6925   -1.8567    0.0000 C   0  0  0  0  0  0  0  0  0  0  0  0
    2.4069   -1.4442    0.0000 C   0  0  0  0  0  0  0  0  0  0  0  0
    3.1214   -1.8567    0.0000 C   0  0  0  0  0  0  0  0  0  0  0  0
    3.8359   -1.4442    0.0000 C   0  0  0  0  0  0  0  0  0  0  0  0
    4.5504   -1.8567    0.0000 C   0  0  0  0  0  0  0  0  0  0  0  0
    5.2648   -1.4442    0.0000 C   0  0  0  0  0  0  0  0  0  0  0  0
    5.9793   -1.8567    0.0000 C   0  0  0  0  0  0  0  0  0  0  0  0
    6.6938   -1.4442    0.0000 C   0  0  0  0  0  0  0  0  0  0  0  0
    7.4082   -1.8567    0.0000 C   0  0  0  0  0  0  0  0  0  0  0  0
    8.1227   -1.4442    0.0000 C   0  0  0  0  0  0  0  0  0  0  0  0
    8.1227   -0.6192    0.0000 C   0  0  0  0  0  0  0  0  0  0  0  0
    7.4082   -0.2067    0.0000 C   0  0  0  0  0  0  0  0  0  0  0  0
    6.6938   -0.6192    0.0000 C   0  0  0  0  0  0  0  0  0  0  0  0
  1  2  1  0
  2  3  1  0
  3  4  1  0
  4  5  1  0
  5  6  1  0
  6  7  1  0
  7  8  1  0
  8  9  1  0
  9 10  1  0
 10 11  1  0
 11 12  1  0
 13 12  2  0
 14 13  1  0
 15 14  2  0
 16 15  1  0
 17 16  2  0
 12 17  1  0
M  END
>  <id>  (526) 
802523; 802674

>  <casrn>  (526) 
67774-74-7

>  <smiles (First)>  (526) 
CCCCCCCCCCCc1ccccc1

>  <Molecular weight>  (526) 
232.4042205810547

>  <name>  (526) 
Benzene, C10-13-alkyl derivs.

>  <Outcome>  (526) 
0

>  <Molecule (RDKit Mol) (InChI Code)>  (526) 
InChI=1S/C17H28/c1-2-3-4-5-6-7-8-9-11-14-17-15-12-10-13-16-17/h10,12-13,15-16H,2-9,11,14H2,1H3

>  <reference>  (526) 
ToxValDB

>  <molecule_form>  (526) 
not specified

>  <ID>  (526) 


>  <SMILES>  (526) 
CCCCCCCCCCCc1ccccc1

>  <ROMol>  (526) 
<rdkit.Chem.rdchem.Mol object at 0x0000027F78E26C10>

$$$$

     RDKit          2D

  9  9  0  0  0  0  0  0  0  0999 V2000
    1.4227    0.7383    0.0000 O   0  0  0  0  0  0  0  0  0  0  0  0
    0.7083    0.3258    0.0000 C   0  0  0  0  0  0  0  0  0  0  0  0
   -0.0062    0.7383    0.0000 C   0  0  0  0  0  0  0  0  0  0  0  0
   -0.7207    0.3258    0.0000 C   0  0  0  0  0  0  0  0  0  0  0  0
   -1.4352    0.7383    0.0000 Cl  0  0  0  0  0  0  0  0  0  0  0  0
   -0.7207   -0.4992    0.0000 C   0  0  0  0  0  0  0  0  0  0  0  0
   -0.0062   -0.9117    0.0000 C   0  0  0  0  0  0  0  0  0  0  0  0
    0.7083   -0.4992    0.0000 C   0  0  0  0  0  0  0  0  0  0  0  0
    1.4227   -0.9117    0.0000 Cl  0  0  0  0  0  0  0  0  0  0  0  0
  1  2  1  0
  3  2  2  0
  4  3  1  0
  4  5  1  0
  6  4  2  0
  7  6  1  0
  8  7  2  0
  8  9  1  0
  2  8  1  0
M  END
>  <id>  (527) 
802272

>  <casrn>  (527) 
583-78-8

>  <smiles (First)>  (527) 
Oc1cc(Cl)ccc1Cl

>  <Molecular weight>  (527) 
163.00135803222656

>  <name>  (527) 
2,5-Dichlorophenol

>  <Outcome>  (527) 
0

>  <Molecule (RDKit Mol) (InChI Code)>  (527) 
InChI=1S/C6H4Cl2O/c7-4-1-2-5(8)6(9)3-4/h1-3,9H

>  <reference>  (527) 
ToxValDB

>  <molecule_form>  (527) 
not specified

>  <ID>  (527) 


>  <SMILES>  (527) 
Oc1cc(Cl)ccc1Cl

>  <ROMol>  (527) 
<rdkit.Chem.rdchem.Mol object at 0x0000027F58444820>

$$$$

     RDKit          2D

 13 13  0  0  0  0  0  0  0  0999 V2000
    0.0038    2.4180    0.0000 C   0  0  0  0  0  0  0  0  0  0  0  0
    0.7183    2.0055    0.0000 O   0  0  0  0  0  0  0  0  0  0  0  0
    0.7183    1.1805    0.0000 C   0  0  0  0  0  0  0  0  0  0  0  0
    1.4327    0.7680    0.0000 C   0  0  0  0  0  0  0  0  0  0  0  0
    1.4327   -0.0570    0.0000 C   0  0  0  0  0  0  0  0  0  0  0  0
    0.7183   -0.4695    0.0000 C   0  0  0  0  0  0  0  0  0  0  0  0
    0.7183   -1.2945    0.0000 C   0  0  0  0  0  0  0  0  0  0  0  0
    0.0038   -1.7070    0.0000 C   0  0  0  0  0  0  0  0  0  0  0  0
    0.0038   -2.5320    0.0000 N   0  0  0  0  0  0  0  0  0  0  0  0
    0.0038   -0.0570    0.0000 C   0  0  0  0  0  0  0  0  0  0  0  0
    0.0038    0.7680    0.0000 C   0  0  0  0  0  0  0  0  0  0  0  0
   -0.7107    1.1805    0.0000 O   0  0  0  0  0  0  0  0  0  0  0  0
   -0.7107    2.0055    0.0000 C   0  0  0  0  0  0  0  0  0  0  0  0
  1  2  1  0
  2  3  1  0
  3  4  2  0
  4  5  1  0
  5  6  2  0
  6  7  1  0
  7  8  1  0
  8  9  1  0
  6 10  1  0
 10 11  2  0
  3 11  1  0
 11 12  1  0
 12 13  1  0
M  END
>  <id>  (528) 
1330

>  <casrn>  (528) 
120-20-7

>  <smiles (First)>  (528) 


>  <Molecular weight>  (528) 
181.23159790039062

>  <name>  (528) 
2-(3,4-dimethoxyphenyl)ethan-1-amine

>  <Outcome>  (528) 
0

>  <Molecule (RDKit Mol) (InChI Code)>  (528) 
InChI=1S/C10H15NO2/c1-12-9-4-3-8(5-6-11)7-10(9)13-2/h3-4,7H,5-6,11H2,1-2H3

>  <reference>  (528) 
ECHA

>  <molecule_form>  (528) 
A

>  <ID>  (528) 


>  <SMILES>  (528) 
COc1ccc(CCN)cc1OC

>  <ROMol>  (528) 
<rdkit.Chem.rdchem.Mol object at 0x0000027F5842F350>

$$$$

     RDKit          2D

 10 10  0  0  0  0  0  0  0  0999 V2000
    3.2734    0.5960    0.0000 O   0  0  0  0  0  0  0  0  0  0  0  0
    2.5590    1.0085    0.0000 C   0  0  0  0  0  0  0  0  0  0  0  0
    1.8445    0.5960    0.0000 C   0  0  0  0  0  0  0  0  0  0  0  0
    1.1300    1.0085    0.0000 C   0  0  0  0  0  0  0  0  0  0  0  0
    0.4156    0.5960    0.0000 C   0  0  0  0  0  0  0  0  0  0  0  0
   -0.2989    1.0085    0.0000 C   0  0  0  0  0  0  0  0  0  0  0  0
   -1.0134    0.5960    0.0000 C   0  0  0  0  0  0  0  0  0  0  0  0
   -1.0134   -0.2290    0.0000 C   0  0  0  0  0  0  0  0  0  0  0  0
   -0.2989   -0.6415    0.0000 C   0  0  0  0  0  0  0  0  0  0  0  0
    0.4156   -0.2290    0.0000 C   0  0  0  0  0  0  0  0  0  0  0  0
  1  2  1  0
  3  2  1  0
  3  4  2  3
  4  5  1  0
  6  5  2  0
  7  6  1  0
  8  7  2  0
  9  8  1  0
 10  9  2  0
  5 10  1  0
M  END
>  <id>  (529) 
199540

>  <casrn>  (529) 
104-54-1

>  <smiles (First)>  (529) 
OC\C=C/c1ccccc1

>  <Molecular weight>  (529) 
134.17510986328125

>  <name>  (529) 
3-Phenyl-2-propen-1-ol

>  <Outcome>  (529) 
0

>  <Molecule (RDKit Mol) (InChI Code)>  (529) 
InChI=1S/C9H10O/c10-8-4-7-9-5-2-1-3-6-9/h1-7,10H,8H2

>  <reference>  (529) 
ToxValDB

>  <molecule_form>  (529) 
not specified

>  <ID>  (529) 


>  <SMILES>  (529) 
OCC=Cc1ccccc1

>  <ROMol>  (529) 
<rdkit.Chem.rdchem.Mol object at 0x0000027F624624A0>

$$$$

     RDKit          2D

 16 15  0  0  0  0  0  0  0  0999 V2000
    2.7678   -8.6737    0.0000 C   0  0  0  0  0  0  0  0  0  0  0  0
    2.7678   -7.8487    0.0000 C   0  0  0  0  0  0  0  0  0  0  0  0
    2.0533   -7.4362    0.0000 C   0  0  0  0  0  0  0  0  0  0  0  0
    2.0533   -6.6112    0.0000 C   0  0  0  0  0  0  0  0  0  0  0  0
    1.3388   -6.1987    0.0000 O   0  0  0  0  0  0  0  0  0  0  0  0
    1.3388   -5.3737    0.0000 Tl  0  0  0  0  0  3  0  0  0  0  0  0
    0.6243   -4.9612    0.0000 O   0  0  0  0  0  0  0  0  0  0  0  0
    0.6243   -4.1362    0.0000 C   0  0  0  0  0  0  0  0  0  0  0  0
   -0.0901   -3.7237    0.0000 C   0  0  0  0  0  0  0  0  0  0  0  0
   -0.0901   -2.8987    0.0000 C   0  0  0  0  0  0  0  0  0  0  0  0
   -0.8046   -2.4862    0.0000 C   0  0  0  0  0  0  0  0  0  0  0  0
    2.0533   -4.9612    0.0000 O   0  0  0  0  0  0  0  0  0  0  0  0
    2.0533   -4.1362    0.0000 C   0  0  0  0  0  0  0  0  0  0  0  0
    2.7678   -3.7237    0.0000 C   0  0  0  0  0  0  0  0  0  0  0  0
    2.7678   -2.8987    0.0000 C   0  0  0  0  0  0  0  0  0  0  0  0
    3.4822   -2.4862    0.0000 C   0  0  0  0  0  0  0  0  0  0  0  0
  1  2  1  0
  2  3  1  0
  3  4  1  0
  4  5  1  0
  5  6  1  0
  6  7  1  0
  7  8  1  0
  8  9  1  0
  9 10  1  0
 10 11  1  0
  6 12  1  0
 12 13  1  0
 13 14  1  0
 14 15  1  0
 15 16  1  0
M  END
>  <id>  (530) 
2137

>  <casrn>  (530) 
67762-63-4

>  <smiles (First)>  (530) 


>  <Molecular weight>  (530) 
423.7242736816406

>  <name>  (530) 
Fatty acids, tall-oil, Bu esters

>  <Outcome>  (530) 
0

>  <Molecule (RDKit Mol) (InChI Code)>  (530) 
InChI=1S/3C4H9O.Tl/c3*1-2-3-4-5;/h3*2-4H2,1H3;/q3*-1;+3

>  <reference>  (530) 
ECHA

>  <molecule_form>  (530) 
A

>  <ID>  (530) 


>  <SMILES>  (530) 
CCCCO[Tl](OCCCC)OCCCC

>  <ROMol>  (530) 
<rdkit.Chem.rdchem.Mol object at 0x0000027F58428890>

$$$$

     RDKit          2D

 14 13  0  0  0  0  0  0  0  0999 V2000
    4.7586    3.5724    0.0000 N   0  0  0  0  0  0  0  0  0  0  0  0
    5.4730    3.9849    0.0000 C   0  0  0  0  0  0  0  0  0  0  0  0
    6.1875    3.5724    0.0000 C   0  0  0  0  0  0  0  0  0  0  0  0
    6.9020    3.9849    0.0000 C   0  0  0  0  0  0  0  0  0  0  0  0
    7.6164    3.5724    0.0000 O   0  0  0  0  0  0  0  0  0  0  0  0
    8.3309    3.9849    0.0000 C   0  0  0  0  0  0  0  0  0  0  0  0
    9.0454    3.5724    0.0000 C   0  0  0  0  0  0  0  0  0  0  0  0
    9.7599    3.9849    0.0000 C   0  0  0  0  0  0  0  0  0  0  0  0
   10.4743    3.5724    0.0000 C   0  0  0  0  0  0  0  0  0  0  0  0
   11.1888    3.9849    0.0000 O   0  0  0  0  0  0  0  0  0  0  0  0
   11.9033    3.5724    0.0000 C   0  0  0  0  0  0  0  0  0  0  0  0
   12.6177    3.9849    0.0000 C   0  0  0  0  0  0  0  0  0  0  0  0
   13.3322    3.5724    0.0000 C   0  0  0  0  0  0  0  0  0  0  0  0
   14.0467    3.9849    0.0000 N   0  0  0  0  0  0  0  0  0  0  0  0
  1  2  1  0
  2  3  1  0
  3  4  1  0
  4  5  1  0
  5  6  1  0
  6  7  1  0
  7  8  1  0
  8  9  1  0
  9 10  1  0
 10 11  1  0
 11 12  1  0
 12 13  1  0
 13 14  1  0
M  END
>  <id>  (531) 
1714

>  <casrn>  (531) 
7300-34-7

>  <smiles (First)>  (531) 


>  <Molecular weight>  (531) 
204.3097686767578

>  <name>  (531) 
3,3'-[butane-1,4-diylbis(oxy)]dipropan-1-amine

>  <Outcome>  (531) 
1

>  <Molecule (RDKit Mol) (InChI Code)>  (531) 
InChI=1S/C10H24N2O2/c11-5-3-9-13-7-1-2-8-14-10-4-6-12/h1-12H2

>  <reference>  (531) 
ECHA

>  <molecule_form>  (531) 
A

>  <ID>  (531) 


>  <SMILES>  (531) 
NCCCOCCCCOCCCN

>  <ROMol>  (531) 
<rdkit.Chem.rdchem.Mol object at 0x0000027F584AC430>

$$$$

     RDKit          2D

 16 15  0  0  0  0  0  0  0  0999 V2000
    5.9961    4.2876    0.0000 C   0  0  0  0  0  0  0  0  0  0  0  0
    6.7105    4.7001    0.0000 C   0  0  0  0  0  0  0  0  0  0  0  0
    7.4250    4.2876    0.0000 C   0  0  0  0  0  0  0  0  0  0  0  0
    8.1395    4.7001    0.0000 C   0  0  0  0  0  0  0  0  0  0  0  0
    8.8539    4.2876    0.0000 C   0  0  0  0  0  0  0  0  0  0  0  0
    9.5684    4.7001    0.0000 C   0  0  0  0  0  0  0  0  0  0  0  0
   10.2829    4.2876    0.0000 C   0  0  0  0  0  0  0  0  0  0  0  0
   10.9974    4.7001    0.0000 C   0  0  0  0  0  0  0  0  0  0  0  0
   11.7118    4.2876    0.0000 C   0  0  0  0  0  0  0  0  0  0  0  0
   12.4263    4.7001    0.0000 C   0  0  0  0  0  0  0  0  0  0  0  0
   13.1408    4.2876    0.0000 C   0  0  0  0  0  0  0  0  0  0  0  0
   13.8552    4.7001    0.0000 C   0  0  0  0  0  0  0  0  0  0  0  0
   14.5697    4.2876    0.0000 C   0  0  0  0  0  0  0  0  0  0  0  0
   15.2842    4.7001    0.0000 C   0  0  0  0  0  0  0  0  0  0  0  0
   15.9987    4.2876    0.0000 C   0  0  0  0  0  0  0  0  0  0  0  0
   16.7131    4.7001    0.0000 C   0  0  0  0  0  0  0  0  0  0  0  0
  1  2  2  0
  2  3  1  0
  3  4  1  0
  4  5  1  0
  5  6  1  0
  6  7  1  0
  7  8  1  0
  8  9  1  0
  9 10  1  0
 10 11  1  0
 11 12  1  0
 12 13  1  0
 13 14  1  0
 14 15  1  0
 15 16  1  0
M  END
>  <id>  (532) 
3300; 3275; 3254; 3307; 3282; 3302; 3299; 3280

>  <casrn>  (532) 
26952-14-7

>  <smiles (First)>  (532) 


>  <Molecular weight>  (532) 
224.42529296875

>  <name>  (532) 
hexadec-1-ene

>  <Outcome>  (532) 
0

>  <Molecule (RDKit Mol) (InChI Code)>  (532) 
InChI=1S/C16H32/c1-3-5-7-9-11-13-15-16-14-12-10-8-6-4-2/h3H,1,4-16H2,2H3

>  <reference>  (532) 
ECHA

>  <molecule_form>  (532) 
V

>  <ID>  (532) 


>  <SMILES>  (532) 
C=CCCCCCCCCCCCCCC

>  <ROMol>  (532) 
<rdkit.Chem.rdchem.Mol object at 0x0000027F62463890>

$$$$

     RDKit          2D

  6  5  0  0  0  0  0  0  0  0999 V2000
    2.0639    0.7121    0.0000 C   0  0  0  0  0  0  0  0  0  0  0  0
    1.2389    0.7121    0.0000 C   0  0  0  0  0  0  0  0  0  0  0  0
    0.8264   -0.0023    0.0000 C   0  0  0  0  0  0  0  0  0  0  0  0
    0.0014   -0.0023    0.0000 C   0  0  0  0  0  0  0  0  0  0  0  0
   -0.4111   -0.7168    0.0000 C   0  0  0  0  0  0  0  0  0  0  0  0
   -0.8236   -1.4313    0.0000 N   0  0  0  0  0  0  0  0  0  0  0  0
  1  2  1  0
  3  2  1  0
  3  4  2  3
  4  5  1  0
  5  6  3  0
M  END
>  <id>  (533) 
3685

>  <casrn>  (533) 
25899-50-7

>  <smiles (First)>  (533) 


>  <Molecular weight>  (533) 
81.11578369140625

>  <name>  (533) 
pent-2-enenitrile

>  <Outcome>  (533) 
1

>  <Molecule (RDKit Mol) (InChI Code)>  (533) 
InChI=1S/C5H7N/c1-2-3-4-5-6/h3-4H,2H2,1H3

>  <reference>  (533) 
ECHA

>  <molecule_form>  (533) 
V

>  <ID>  (533) 


>  <SMILES>  (533) 
CCC=CC#N

>  <ROMol>  (533) 
<rdkit.Chem.rdchem.Mol object at 0x0000027F58428350>

$$$$

     RDKit          2D

  9  9  0  0  0  0  0  0  0  0999 V2000
    2.3191   -0.0578    0.0000 C   0  0  0  0  0  0  0  0  0  0  0  0
    1.6046    0.3547    0.0000 C   0  0  0  0  0  0  0  0  0  0  0  0
    1.6046    1.1797    0.0000 O   0  0  0  0  0  0  0  0  0  0  0  0
    0.8902   -0.0578    0.0000 C   0  0  0  0  0  0  0  0  0  0  0  0
    0.1757    0.3547    0.0000 C   0  0  0  0  0  0  0  0  0  0  0  0
   -0.5388   -0.0578    0.0000 C   0  0  0  0  0  0  0  0  0  0  0  0
   -0.5388   -0.8828    0.0000 C   0  0  0  0  0  0  0  0  0  0  0  0
    0.1757   -1.2953    0.0000 C   0  0  0  0  0  0  0  0  0  0  0  0
    0.8902   -0.8828    0.0000 C   0  0  0  0  0  0  0  0  0  0  0  0
  1  2  1  0
  2  3  1  0
  2  4  1  0
  5  4  2  0
  6  5  1  0
  7  6  2  0
  8  7  1  0
  9  8  2  0
  4  9  1  0
M  END
>  <id>  (534) 
354158

>  <casrn>  (534) 
98-85-1

>  <smiles (First)>  (534) 
CC(O)c1ccccc1

>  <Molecular weight>  (534) 
122.1644058227539

>  <name>  (534) 
alpha-Methylbenzyl alcohol

>  <Outcome>  (534) 
0

>  <Molecule (RDKit Mol) (InChI Code)>  (534) 
InChI=1S/C8H10O/c1-7(9)8-5-3-2-4-6-8/h2-7,9H,1H3

>  <reference>  (534) 
ToxValDB

>  <molecule_form>  (534) 
not specified

>  <ID>  (534) 


>  <SMILES>  (534) 
CC(O)c1ccccc1

>  <ROMol>  (534) 
<rdkit.Chem.rdchem.Mol object at 0x0000027F78D939E0>

$$$$

     RDKit          2D

  7  6  0  0  0  0  0  0  0  0999 V2000
    1.7605    1.8432    0.0000 C   0  0  0  0  0  0  0  0  0  0  0  0
    2.4750    1.4307    0.0000 C   0  0  0  0  0  0  0  0  0  0  0  0
    3.1895    1.8432    0.0000 O   0  0  0  0  0  0  0  0  0  0  0  0
    3.9039    1.4307    0.0000 C   0  0  0  0  0  0  0  0  0  0  0  0
    4.6184    1.8432    0.0000 C   0  0  0  0  0  0  0  0  0  0  0  0
    5.3329    1.4307    0.0000 C   0  0  0  0  0  0  0  0  0  0  0  0
    6.0474    1.8432    0.0000 C   0  0  0  0  0  0  0  0  0  0  0  0
  1  2  2  0
  2  3  1  0
  3  4  1  0
  4  5  1  0
  5  6  1  0
  6  7  1  0
M  END
>  <id>  (535) 
1094

>  <casrn>  (535) 
111-34-2

>  <smiles (First)>  (535) 


>  <Molecular weight>  (535) 
100.15888214111328

>  <name>  (535) 
1-(ethenyloxy)butane

>  <Outcome>  (535) 
0

>  <Molecule (RDKit Mol) (InChI Code)>  (535) 
InChI=1S/C6H12O/c1-3-5-6-7-4-2/h4H,2-3,5-6H2,1H3

>  <reference>  (535) 
ECHA

>  <molecule_form>  (535) 
V

>  <ID>  (535) 


>  <SMILES>  (535) 
C=COCCCC

>  <ROMol>  (535) 
<rdkit.Chem.rdchem.Mol object at 0x0000027F5C144270>

$$$$

     RDKit          2D

 11 11  0  0  0  0  0  0  0  0999 V2000
    3.3002   -0.3536    0.0000 C   0  0  0  0  0  0  0  0  0  0  0  0
    2.5858    0.0589    0.0000 O   0  0  0  0  0  0  0  0  0  0  0  0
    1.8713   -0.3536    0.0000 C   0  0  0  0  0  0  0  0  0  0  0  0
    1.8713   -1.1786    0.0000 O   0  0  0  0  0  0  0  0  0  0  0  0
    1.1568    0.0589    0.0000 C   0  0  0  0  0  0  0  0  0  0  0  0
    0.4423   -0.3536    0.0000 C   0  0  0  0  0  0  0  0  0  0  0  0
   -0.2721    0.0589    0.0000 C   0  0  0  0  0  0  0  0  0  0  0  0
   -0.9866   -0.3536    0.0000 C   0  0  0  0  0  0  0  0  0  0  0  0
   -0.9866   -1.1786    0.0000 C   0  0  0  0  0  0  0  0  0  0  0  0
   -0.2721   -1.5911    0.0000 C   0  0  0  0  0  0  0  0  0  0  0  0
    0.4423   -1.1786    0.0000 C   0  0  0  0  0  0  0  0  0  0  0  0
  1  2  1  0
  2  3  1  0
  3  4  2  0
  3  5  1  0
  5  6  1  0
  7  6  2  0
  8  7  1  0
  9  8  2  0
 10  9  1  0
 11 10  2  0
  6 11  1  0
M  END
>  <id>  (536) 
196754

>  <casrn>  (536) 
101-41-7

>  <smiles (First)>  (536) 
COC(=O)Cc1ccccc1

>  <Molecular weight>  (536) 
150.17449951171875

>  <name>  (536) 
Methyl phenylacetate

>  <Outcome>  (536) 
0

>  <Molecule (RDKit Mol) (InChI Code)>  (536) 
InChI=1S/C9H10O2/c1-11-9(10)7-8-5-3-2-4-6-8/h2-6H,7H2,1H3

>  <reference>  (536) 
ToxValDB

>  <molecule_form>  (536) 
not specified

>  <ID>  (536) 


>  <SMILES>  (536) 
COC(=O)Cc1ccccc1

>  <ROMol>  (536) 
<rdkit.Chem.rdchem.Mol object at 0x0000027F6244F5F0>

$$$$

     RDKit          2D

  6  6  0  0  0  0  0  0  0  0999 V2000
    1.6486    0.3307    0.0000 C   0  0  0  0  0  0  0  0  0  0  0  0
    0.8640    0.0758    0.0000 C   0  0  0  0  0  0  0  0  0  0  0  0
    0.1966    0.5607    0.0000 C   0  0  0  0  0  0  0  0  0  0  0  0
   -0.4709    0.0758    0.0000 C   0  0  0  0  0  0  0  0  0  0  0  0
   -0.2159   -0.7088    0.0000 O   0  0  0  0  0  0  0  0  0  0  0  0
    0.6091   -0.7088    0.0000 C   0  0  0  0  0  0  0  0  0  0  0  0
  1  2  1  0
  3  2  1  0
  4  3  1  0
  5  4  1  0
  6  5  1  0
  2  6  1  0
M  END
>  <id>  (537) 
231090

>  <casrn>  (537) 
13423-15-9

>  <smiles (First)>  (537) 
CC1CCOC1

>  <Molecular weight>  (537) 
86.1323013305664

>  <name>  (537) 
Furan, tetrahydro-3-methyl-

>  <Outcome>  (537) 
0

>  <Molecule (RDKit Mol) (InChI Code)>  (537) 
InChI=1S/C5H10O/c1-5-2-3-6-4-5/h5H,2-4H2,1H3

>  <reference>  (537) 
ToxValDB

>  <molecule_form>  (537) 
not specified

>  <ID>  (537) 


>  <SMILES>  (537) 
CC1CCOC1

>  <ROMol>  (537) 
<rdkit.Chem.rdchem.Mol object at 0x0000027F5BB49F20>

$$$$

     RDKit          2D

 15 15  0  0  0  0  0  0  0  0999 V2000
    1.0085    1.1615    0.0000 C   0  0  0  0  0  0  0  0  0  0  0  0
    1.7230    0.7490    0.0000 C   0  0  0  0  0  0  0  0  0  0  0  0
    2.4375    1.1615    0.0000 C   0  0  0  0  0  0  0  0  0  0  0  0
    1.7230   -0.0760    0.0000 N   0  0  0  0  0  0  0  0  0  0  0  0
    2.4375   -0.4885    0.0000 C   0  0  0  0  0  0  0  0  0  0  0  0
    2.4375   -1.3135    0.0000 O   0  0  0  0  0  0  0  0  0  0  0  0
    3.1520   -0.0760    0.0000 C   0  0  0  0  0  0  0  0  0  0  0  0
    3.8664   -0.4885    0.0000 O   0  0  0  0  0  0  0  0  0  0  0  0
    1.0085   -0.4885    0.0000 C   0  0  0  0  0  0  0  0  0  0  0  0
    0.2941   -0.0760    0.0000 C   0  0  0  0  0  0  0  0  0  0  0  0
   -0.4204   -0.4885    0.0000 C   0  0  0  0  0  0  0  0  0  0  0  0
   -0.4204   -1.3135    0.0000 C   0  0  0  0  0  0  0  0  0  0  0  0
   -1.1349   -1.7260    0.0000 F   0  0  0  0  0  0  0  0  0  0  0  0
    0.2941   -1.7260    0.0000 C   0  0  0  0  0  0  0  0  0  0  0  0
    1.0085   -1.3135    0.0000 C   0  0  0  0  0  0  0  0  0  0  0  0
  1  2  1  0
  2  3  1  0
  2  4  1  0
  4  5  1  0
  5  6  2  0
  5  7  1  0
  7  8  1  0
  4  9  1  0
 10  9  2  0
 11 10  1  0
 12 11  2  0
 12 13  1  0
 14 12  1  0
 15 14  2  0
  9 15  1  0
M  END
>  <id>  (538) 
924337

>  <casrn>  (538) 
54041-17-7

>  <smiles (First)>  (538) 
CC(C)N(C(=O)CO)c1ccc(F)cc1

>  <Molecular weight>  (538) 
211.23277282714844

>  <name>  (538) 
Acetamide, N-(4-fluorophenyl)-2-hydroxy-N-(1-methylethyl)-

>  <Outcome>  (538) 
1

>  <Molecule (RDKit Mol) (InChI Code)>  (538) 
InChI=1S/C11H14FNO2/c1-8(2)13(11(15)7-14)10-5-3-9(12)4-6-10/h3-6,8,14H,7H2,1-2H3

>  <reference>  (538) 
ToxValDB

>  <molecule_form>  (538) 
not specified

>  <ID>  (538) 


>  <SMILES>  (538) 
CC(C)N(C(=O)CO)c1ccc(F)cc1

>  <ROMol>  (538) 
<rdkit.Chem.rdchem.Mol object at 0x0000027F58444270>

$$$$

     RDKit          2D

 12 12  0  0  0  0  0  0  0  0999 V2000
   -0.6060    3.7821    0.0000 C   0  0  0  0  0  0  0  0  0  0  0  0
    0.1085    3.3696    0.0000 C   0  0  0  0  0  0  0  0  0  0  0  0
    0.8229    3.7821    0.0000 C   0  0  0  0  0  0  0  0  0  0  0  0
    0.1085    2.5446    0.0000 C   0  0  0  0  0  0  0  0  0  0  0  0
   -0.6060    2.1321    0.0000 O   0  0  0  0  0  0  0  0  0  0  0  0
    0.8229    2.1321    0.0000 O   0  0  0  0  0  0  0  0  0  0  0  0
    0.8229    1.3071    0.0000 C   0  0  0  0  0  0  0  0  0  0  0  0
    1.5374    0.8946    0.0000 C   0  0  0  0  0  0  0  0  0  0  0  0
    1.5374    0.0696    0.0000 C   0  0  0  0  0  0  0  0  0  0  0  0
    0.8229   -0.3429    0.0000 C   0  0  0  0  0  0  0  0  0  0  0  0
    0.1085    0.0696    0.0000 C   0  0  0  0  0  0  0  0  0  0  0  0
    0.1085    0.8946    0.0000 C   0  0  0  0  0  0  0  0  0  0  0  0
  1  2  2  0
  2  3  1  0
  2  4  1  0
  4  5  2  0
  4  6  1  0
  6  7  1  0
  7  8  1  0
  8  9  1  0
  9 10  1  0
 10 11  1  0
 11 12  1  0
  7 12  1  0
M  END
>  <id>  (539) 
2837

>  <casrn>  (539) 
101-43-9

>  <smiles (First)>  (539) 


>  <Molecular weight>  (539) 
168.23284912109375

>  <name>  (539) 
cyclohexyl 2-methylprop-2-enoate

>  <Outcome>  (539) 
0

>  <Molecule (RDKit Mol) (InChI Code)>  (539) 
InChI=1S/C10H16O2/c1-8(2)10(11)12-9-6-4-3-5-7-9/h9H,1,3-7H2,2H3

>  <reference>  (539) 
ECHA

>  <molecule_form>  (539) 
V

>  <ID>  (539) 


>  <SMILES>  (539) 
C=C(C)C(=O)OC1CCCCC1

>  <ROMol>  (539) 
<rdkit.Chem.rdchem.Mol object at 0x0000027F624B1270>

$$$$

     RDKit          2D

 10 10  0  0  0  0  0  0  0  0999 V2000
    1.2448    1.8695    0.0000 O   0  0  0  0  0  0  0  0  0  0  0  0
    0.7145    1.2375    0.0000 S   0  0  0  0  0  0  0  0  0  0  0  0
    0.1842    1.8695    0.0000 O   0  0  0  0  0  0  0  0  0  0  0  0
    1.4289    0.8250    0.0000 C   0  0  0  0  0  0  0  0  0  0  0  0
    1.4289    0.0000    0.0000 S   0  0  0  0  0  0  0  0  0  0  0  0
    2.2414    0.1433    0.0000 O   0  0  0  0  0  0  0  0  0  0  0  0
    1.7111   -0.7752    0.0000 O   0  0  0  0  0  0  0  0  0  0  0  0
    0.7145   -0.4125    0.0000 O   0  0  0  0  0  0  0  0  0  0  0  0
   -0.0000    0.0000    0.0000 C   0  0  0  0  0  0  0  0  0  0  0  0
   -0.0000    0.8250    0.0000 O   0  0  0  0  0  0  0  0  0  0  0  0
  1  2  2  0
  2  3  2  0
  2  4  1  0
  4  5  1  0
  5  6  2  0
  5  7  2  0
  5  8  1  0
  8  9  1  0
  9 10  1  0
  2 10  1  0
M  END
>  <id>  (540) 
429

>  <casrn>  (540) 
99591-74-9

>  <smiles (First)>  (540) 


>  <Molecular weight>  (540) 
188.1795654296875

>  <name>  (540) 
-

>  <Outcome>  (540) 
1

>  <Molecule (RDKit Mol) (InChI Code)>  (540) 
InChI=1S/C2H4O6S2/c3-9(4)2-10(5,6)8-1-7-9/h1-2H2

>  <reference>  (540) 
ECHA

>  <molecule_form>  (540) 
A

>  <ID>  (540) 


>  <SMILES>  (540) 
O=S1(=O)CS(=O)(=O)OCO1

>  <ROMol>  (540) 
<rdkit.Chem.rdchem.Mol object at 0x0000027F5843ADD0>

$$$$

     RDKit          2D

  8  8  0  0  0  0  0  0  0  0999 V2000
    1.4289    0.8250    0.0000 Cl  0  0  0  0  0  0  0  0  0  0  0  0
    0.7145    0.4125    0.0000 C   0  0  0  0  0  0  0  0  0  0  0  0
   -0.0000    0.8250    0.0000 C   0  0  0  0  0  0  0  0  0  0  0  0
   -0.7145    0.4125    0.0000 C   0  0  0  0  0  0  0  0  0  0  0  0
   -0.7145   -0.4125    0.0000 C   0  0  0  0  0  0  0  0  0  0  0  0
   -0.0000   -0.8250    0.0000 C   0  0  0  0  0  0  0  0  0  0  0  0
    0.7145   -0.4125    0.0000 C   0  0  0  0  0  0  0  0  0  0  0  0
    1.4289   -0.8250    0.0000 Cl  0  0  0  0  0  0  0  0  0  0  0  0
  1  2  1  0
  3  2  2  0
  4  3  1  0
  5  4  2  0
  6  5  1  0
  7  6  2  0
  7  8  1  0
  2  7  1  0
M  END
>  <id>  (541) 
798529

>  <casrn>  (541) 
95-50-1

>  <smiles (First)>  (541) 
Clc1ccccc1Cl

>  <Molecular weight>  (541) 
147.001953125

>  <name>  (541) 
1,2-Dichlorobenzene

>  <Outcome>  (541) 
1

>  <Molecule (RDKit Mol) (InChI Code)>  (541) 
InChI=1S/C6H4Cl2/c7-5-3-1-2-4-6(5)8/h1-4H

>  <reference>  (541) 
ToxValDB

>  <molecule_form>  (541) 
not specified

>  <ID>  (541) 


>  <SMILES>  (541) 
Clc1ccccc1Cl

>  <ROMol>  (541) 
<rdkit.Chem.rdchem.Mol object at 0x0000027F584444A0>

$$$$
